LTspice 24.1.10 for Windows
Circuit: Z:\home\fadelrio\Documents\Ingenieria\Taller de circuitos\TP\cuarto_check\Draft2.net
Start Time: Fri Nov 14 13:46:52 2025
solver = Normal
Maximum thread count: 16
tnom = 27
temp = 27
method = modified trap
Z:\home\fadelrio\Documents\Ingenieria\Taller de circuitos\TP\cuarto_check\Draft2.net(3): WARNING: Specified period is not longer than the sum of Trise, Tfall, and Ton. Increasing period to 7.693e-06.

V1 N001 0 PULSE(0 9 0 3.846u 3.846u 0.001u 7.692u 100)
^^^^^^^^^^^^^^^^^^^^^^^^^^^^^^^^^^^^^^^^^^^^^^^^^^^^^^
.OP point found by inspection.
Total elapsed time: 0.050 seconds.

Files loaded:
Z:\home\fadelrio\Documents\Ingenieria\Taller de circuitos\TP\cuarto_check\Draft2.net

