LTspice 24.1.10 for Windows
Circuit: Z:\home\fadelrio\Documents\Ingenieria\Taller de circuitos\TP\cuarto_check\Draft1.net
Start Time: Fri Nov 14 13:42:13 2025
solver = Normal
Maximum thread count: 16
tnom = 27
temp = 27
method = modified trap
Z:\home\fadelrio\Documents\Ingenieria\Taller de circuitos\TP\cuarto_check\Draft1.net(3): WARNING: Specified period is not longer than the sum of Trise, Tfall, and Ton. Increasing period to 1.15377e-05.

V1 N001 0 PULSE(0 9 0 3.8459u 3.8459u 3.8459u 7.692u 10)
^^^^^^^^^^^^^^^^^^^^^^^^^^^^^^^^^^^^^^^^^^^^^^^^^^^^^^^^
.OP point found by inspection.
Total elapsed time: 0.031 seconds.

Files loaded:
Z:\home\fadelrio\Documents\Ingenieria\Taller de circuitos\TP\cuarto_check\Draft1.net

