LTspice 24.1.7 for Windows
Circuit: C:\Users\marti\Documents\Ing electronica\Taller de circuitos\Taller-de-circuitos\cuarto_check\fuente_conmutada_1.net
Start Time: Fri Oct 31 21:50:08 2025
solver = Normal
Maximum thread count: 16
tnom = 27
temp = 27
method = trap
Direct Newton iteration for .op point succeeded.
Total elapsed time: 4.991 seconds.

Files loaded:
C:\Users\marti\Documents\Ing electronica\Taller de circuitos\Taller-de-circuitos\cuarto_check\fuente_conmutada_1.net
C:\Users\marti\AppData\Local\LTspice\lib\cmp\standard.mos
C:\Users\marti\Documents\Ing electronica\Taller de circuitos\Taller-de-circuitos\cuarto_check\irf4905.txt

