LTspice 24.1.10 for Windows
Circuit: C:\users\fadelrio\Documents\Ingenieria\Taller de circuitos\TP\cuarto_check\fuente_conmutada_1.net
Start Time: Mon Oct 27 15:36:08 2025
solver = Normal
Maximum thread count: 16
tnom = 27
temp = 27
method = modified trap
Direct Newton iteration for .op point succeeded.
Total elapsed time: 1.577 seconds.

Files loaded:
C:\users\fadelrio\Documents\Ingenieria\Taller de circuitos\TP\cuarto_check\fuente_conmutada_1.net
C:\users\fadelrio\AppData\Local\LTspice\lib\cmp\standard.dio
C:\users\fadelrio\AppData\Local\LTspice\lib\cmp\standard.mos
C:\users\fadelrio\Documents\Ingenieria\Taller de circuitos\TP\cuarto_check\irf4905.txt

