LTspice 24.1.10 for Windows
Circuit: C:\users\fadelrio\Documents\Ingenieria\Taller de circuitos\TP\cuarto_check\oscilador.net
Start Time: Fri Nov  7 20:49:20 2025
solver = Normal
Maximum thread count: 16
tnom = 27
temp = 27
method = modified trap
Direct Newton iteration failed to find .op point.  (Use ".option noopiter" to skip.)
Starting Gmin stepping
Gmin = 10
Gmin = 1.07374
Gmin = 0.115292
Gmin = 0.0123794
Gmin = 0.00132923
Gmin = 0.000142725
vernier = 0.5
Gmin = 2.66058e-05
vernier = 0.25
vernier = 0.125
vernier = 0.0625
Gmin = 2.35406e-05
vernier = 0.0833333
vernier = 0.111111
Gmin = 1.93192e-05
vernier = 0.148148
Gmin = 1.4045e-05
vernier = 0.197531
vernier = 0.263374
vernier = 0.131687
Gmin = 9.51547e-06
vernier = 0.0658435
vernier = 0.0877914
Gmin = 8.04011e-06
vernier = 0.117055
vernier = 0.156073
vernier = 0.0780367
Gmin = 6.47507e-06
vernier = 0.104049
Gmin = 5.17042e-06
vernier = 0.138732
vernier = 0.0693659
vernier = 0.0924879
Gmin = 4.41758e-06
vernier = 0.046244
vernier = 0.0616586
Gmin = 4.01401e-06
vernier = 0.0822114
vernier = 0.0411057
Gmin = 3.58806e-06
vernier = 0.0548076
vernier = 0.0730768
vernier = 0.0365384
Gmin = 3.24346e-06
vernier = 0.0487178
Gmin = 2.90849e-06
vernier = 0.0649571
vernier = 0.0324786
vernier = 0.0162393
vernier = 0.00811964
vernier = 0.00405982
Gmin = 2.89377e-06
vernier = 0.00541309
vernier = 0.00721745
Gmin = 2.84976e-06
vernier = 0.00962327
vernier = 0.012831
Gmin = 2.78099e-06
vernier = 0.017108
Gmin = 2.67618e-06
vernier = 0.0228107
vernier = 0.0304143
Gmin = 2.50922e-06
vernier = 0.0405523
vernier = 0.0540698
vernier = 0.0270349
Gmin = 2.32635e-06
vernier = 0.0135174
vernier = 0.0180232
Gmin = 2.24667e-06
vernier = 0.024031
vernier = 0.0320413
Gmin = 2.11396e-06
vernier = 0.0427217
vernier = 0.0213609
Gmin = 2.0044e-06
vernier = 0.0284812
vernier = 0.0379749
Gmin = 1.85726e-06
vernier = 0.0189874
vernier = 0.00949371
vernier = 0.0126583
Gmin = 1.81238e-06
vernier = 0.0168777
Gmin = 1.74681e-06
vernier = 0.0225036
vernier = 0.0300048
Gmin = 1.6446e-06
vernier = 0.0400064
vernier = 0.0200032
Gmin = 1.56853e-06
vernier = 0.0266709
vernier = 0.0355612
vernier = 0.0177806
Gmin = 1.4939e-06
vernier = 0.0237075
vernier = 0.03161
Gmin = 1.41165e-06
vernier = 0.015805
vernier = 0.00790249
vernier = 0.0105366
Gmin = 1.39776e-06
vernier = 0.0140489
vernier = 0.0187318
Gmin = 1.35157e-06
vernier = 0.0249757
Gmin = 1.27991e-06
vernier = 0.033301
vernier = 0.0166505
vernier = 0.0222006
Gmin = 1.2321e-06
vernier = 0.0296009
vernier = 0.0148004
vernier = 0.00740021
Gmin = 1.19846e-06
vernier = 0.00986695
vernier = 0.0131559
Gmin = 1.16882e-06
vernier = 0.0175412
Gmin = 1.12367e-06
vernier = 0.0233883
vernier = 0.0116942
vernier = 0.00584708
vernier = 0.0077961
Gmin = 1.11116e-06
vernier = 0.0103948
Gmin = 1.0855e-06
vernier = 0.0138597
vernier = 0.0184796
Gmin = 1.04379e-06
vernier = 0.0246395
vernier = 0.0123198
vernier = 0.0164263
Gmin = 1.01426e-06
vernier = 0.0219018
vernier = 0.0109509
vernier = 0.00547544
Gmin = 9.90976e-07
vernier = 0.00730059
vernier = 0.00973411
Gmin = 9.73809e-07
vernier = 0.0129788
Gmin = 9.46589e-07
vernier = 0.0173051
vernier = 0.00865254
Gmin = 9.19398e-07
vernier = 0.0115367
vernier = 0.0153823
Gmin = 8.94369e-07
vernier = 0.0205097
vernier = 0.0102549
Gmin = 8.70655e-07
vernier = 0.0136731
vernier = 0.0182308
vernier = 0.00911542
Gmin = 8.48653e-07
vernier = 0.0121539
Gmin = 8.26417e-07
vernier = 0.0162052
vernier = 0.00810259
vernier = 0.0040513
Gmin = 8.06608e-07
vernier = 0.00540173
Gmin = 7.9687e-07
vernier = 0.0072023
vernier = 0.00960307
Gmin = 7.8079e-07
vernier = 0.0128041
vernier = 0.0170721
vernier = 0.00853606
Gmin = 7.62296e-07
vernier = 0.00426803
vernier = 0.00213401
vernier = 0.00284535
Gmin = 7.58646e-07
vernier = 0.0037938
vernier = 0.0050584
Gmin = 7.51785e-07
vernier = 0.00674453
Gmin = 7.40783e-07
vernier = 0.00899271
vernier = 0.0119903
Gmin = 7.23116e-07
vernier = 0.015987
vernier = 0.00799351
vernier = 0.00399676
vernier = 0.00199838
Gmin = 7.15579e-07
vernier = 0.0026645
vernier = 0.00355267
Gmin = 7.10751e-07
vernier = 0.00473689
Gmin = 7.0322e-07
vernier = 0.00631586
vernier = 0.00842114
Gmin = 6.90759e-07
vernier = 0.0112282
vernier = 0.0149709
vernier = 0.00748545
Gmin = 6.76388e-07
vernier = 0.00374273
vernier = 0.00187136
vernier = 0.00249515
Gmin = 6.73546e-07
vernier = 0.00332687
vernier = 0.00443582
Gmin = 6.68201e-07
vernier = 0.00591443
Gmin = 6.59618e-07
vernier = 0.0078859
vernier = 0.0105145
Gmin = 6.458e-07
vernier = 0.0140194
vernier = 0.00700968
vernier = 0.00350484
vernier = 0.00175242
Gmin = 6.39893e-07
vernier = 0.00233656
vernier = 0.00311541
Gmin = 6.36105e-07
vernier = 0.00415388
Gmin = 6.3019e-07
vernier = 0.00553851
vernier = 0.00738468
Gmin = 6.20386e-07
vernier = 0.00984624
vernier = 0.0131283
vernier = 0.00656416
Gmin = 6.09051e-07
vernier = 0.00328208
vernier = 0.00164104
vernier = 0.00218805
Gmin = 6.06807e-07
vernier = 0.0029174
vernier = 0.00388987
Gmin = 6.02582e-07
vernier = 0.00518649
Gmin = 5.95788e-07
vernier = 0.00691532
vernier = 0.00922042
Gmin = 5.84828e-07
vernier = 0.0122939
vernier = 0.00614694
vernier = 0.00307347
vernier = 0.00153674
Gmin = 5.80133e-07
vernier = 0.00204898
vernier = 0.00273197
Gmin = 5.7712e-07
vernier = 0.00364263
Gmin = 5.72412e-07
vernier = 0.00485684
vernier = 0.00647579
Gmin = 5.64594e-07
vernier = 0.00863438
vernier = 0.0115125
vernier = 0.00575625
Gmin = 5.55536e-07
vernier = 0.00287813
vernier = 0.00143906
vernier = 0.00191875
Gmin = 5.53741e-07
vernier = 0.00255833
vernier = 0.00341111
Gmin = 5.50358e-07
vernier = 0.00454814
Gmin = 5.44913e-07
vernier = 0.00606419
vernier = 0.00808559
Gmin = 5.36111e-07
vernier = 0.0107808
vernier = 0.00539039
Gmin = 5.29297e-07
vernier = 0.00718718
vernier = 0.00958291
Gmin = 5.18639e-07
vernier = 0.0127772
vernier = 0.0063886
vernier = 0.00851814
Gmin = 5.10972e-07
vernier = 0.0113575
vernier = 0.00567876
vernier = 0.00283938
vernier = 0.00141969
vernier = 0.000709845
Gmin = 5.05566e-07
vernier = 0.000532383
Gmin = 0
Gmin stepping failed

Starting source stepping with srcstepmethod=0
Source Step = 3.0303%
Source Step = 33.3333%
Source Step = 42.4242%
Source Step = 45.2652%
Source Step = 47.1591%
Source Step = 48.5795%
Source Step = 49.053%
Source Step = 49.5265%
Source Step = 50%
Source Step = 50.4735%
vernier = 0.0234375
Source Step = 50.9706%
vernier = 0.00585938
Source Step = 51.0772%
Source Step = 51.2547%
Source Step = 51.4323%
Source Step = 51.6098%
Source Step = 51.7874%
vernier = 0.00878906
Source Step = 51.9783%
Source Step = 52.0449%
Source Step = 52.1114%
Source Step = 52.178%
Source Step = 52.2446%
vernier = 0.0032959
Source Step = 52.3145%
Source Step = 52.4144%
Source Step = 52.5143%
Source Step = 52.6142%
Source Step = 52.714%
Source Step = 52.8139%
vernier = 0.00494385
Source Step = 52.8476%
Source Step = 52.8851%
Source Step = 52.9225%
Source Step = 52.96%
Source Step = 52.9974%
vernier = 0.00185394
Source Step = 53.0499%
Source Step = 53.106%
Source Step = 53.1622%
Source Step = 53.2184%
Source Step = 53.2746%
vernier = 0.00278091
Source Step = 53.3504%
Source Step = 53.4347%
Source Step = 53.519%
Source Step = 53.6032%
Source Step = 53.6875%
vernier = 0.00417137
Source Step = 53.737%
Source Step = 53.7686%
Source Step = 53.8002%
Source Step = 53.8318%
Source Step = 53.8634%
vernier = 0.00156426
Source Step = 53.9013%
Source Step = 53.9487%
Source Step = 53.9961%
Source Step = 54.0435%
Source Step = 54.0909%
vernier = 0.0023464
Source Step = 54.1455%
Source Step = 54.2166%
Source Step = 54.2877%
Source Step = 54.3588%
Source Step = 54.4299%
vernier = 0.00351959
Source Step = 54.5045%
Source Step = 54.6112%
Source Step = 54.7178%
Source Step = 54.8245%
Source Step = 54.9311%
Source Step = 55.0378%
vernier = 0.00527939
Source Step = 55.1978%
Source Step = 55.3578%
Source Step = 55.5177%
Source Step = 55.6777%
Source Step = 55.8377%
vernier = 0.00791909
Source Step = 56.0697%
Source Step = 56.3097%
Source Step = 56.5496%
Source Step = 56.7896%
Source Step = 57.0296%
vernier = 0.0118786
Source Step = 57.3655%
Source Step = 57.7255%
Source Step = 58.0855%
Source Step = 58.4454%
Source Step = 58.8054%
vernier = 0.0178179
Source Step = 59.2913%
Source Step = 59.8313%
Source Step = 60.3712%
Source Step = 60.5332%
Source Step = 60.6682%
Source Step = 60.8031%
Source Step = 60.9381%
Source Step = 61.0731%
vernier = 0.00668173
Source Step = 61.2553%
Source Step = 61.4578%
Source Step = 61.6603%
Source Step = 61.8628%
Source Step = 62.0652%
vernier = 0.0100226
Source Step = 62.3285%
Source Step = 62.6322%
Source Step = 62.9359%
Source Step = 63.2396%
Source Step = 63.5433%
vernier = 0.0150339
Source Step = 63.7407%
Source Step = 63.8546%
Source Step = 63.9685%
Source Step = 64.0824%
Source Step = 64.1963%
vernier = 0.00563771
Source Step = 64.3273%
Source Step = 64.4981%
Source Step = 64.669%
Source Step = 64.8398%
Source Step = 65.0106%
vernier = 0.00845657
Source Step = 65.1986%
Source Step = 65.4548%
Source Step = 65.7111%
Source Step = 65.9673%
Source Step = 66.2236%
vernier = 0.0126848
Source Step = 66.4927%
vernier = 0.00317121
Source Step = 66.5503%
Source Step = 66.6464%
Source Step = 66.7425%
Source Step = 66.8386%
Source Step = 66.9347%
vernier = 0.00475682
Source Step = 67.0741%
Source Step = 67.2182%
Source Step = 67.3624%
Source Step = 67.5065%
Source Step = 67.6507%
vernier = 0.00713523
Source Step = 67.8525%
Source Step = 68.0687%
Source Step = 68.2849%
Source Step = 68.5011%
Source Step = 68.7173%
vernier = 0.0107028
Source Step = 69.0092%
Source Step = 69.3336%
Source Step = 69.6579%
Source Step = 69.9822%
Source Step = 70.3065%
vernier = 0.0160543
Source Step = 70.4971%
Source Step = 70.6187%
Source Step = 70.7403%
Source Step = 70.862%
Source Step = 70.9836%
vernier = 0.00602035
Source Step = 71.1295%
Source Step = 71.312%
Source Step = 71.4944%
Source Step = 71.6768%
Source Step = 71.8593%
vernier = 0.00903052
Source Step = 72.0691%
Source Step = 72.3427%
Source Step = 72.6164%
Source Step = 72.89%
Source Step = 73.1637%
vernier = 0.0135458
Source Step = 73.3929%
Source Step = 73.4955%
Source Step = 73.5981%
Source Step = 73.7007%
Source Step = 73.8033%
Source Step = 73.906%
vernier = 0.00507967
Source Step = 74.0599%
Source Step = 74.2138%
Source Step = 74.3677%
Source Step = 74.5217%
Source Step = 74.6756%
vernier = 0.0076195
Source Step = 74.8988%
Source Step = 75.1297%
Source Step = 75.3606%
Source Step = 75.5915%
Source Step = 75.8224%
vernier = 0.0114293
Source Step = 75.9292%
Source Step = 76.0158%
Source Step = 76.1023%
Source Step = 76.1889%
Source Step = 76.2755%
vernier = 0.00428597
Source Step = 76.3881%
Source Step = 76.5179%
Source Step = 76.6478%
Source Step = 76.7777%
Source Step = 76.9076%
vernier = 0.00642896
Source Step = 77.0699%
Source Step = 77.2647%
Source Step = 77.4596%
Source Step = 77.6544%
Source Step = 77.8492%
vernier = 0.00964343
Source Step = 78.083%
Source Step = 78.3752%
Source Step = 78.6674%
Source Step = 78.9596%
Source Step = 79.2519%
vernier = 0.0144651
Source Step = 79.4783%
Source Step = 79.5879%
Source Step = 79.6975%
Source Step = 79.8071%
Source Step = 79.9167%
vernier = 0.00542443
Source Step = 80.0318%
Source Step = 80.1961%
Source Step = 80.3605%
Source Step = 80.5249%
Source Step = 80.6893%
Source Step = 80.8536%
vernier = 0.00813665
Source Step = 81.1002%
Source Step = 81.3468%
Source Step = 81.5933%
Source Step = 81.8399%
Source Step = 82.0865%
vernier = 0.012205
Source Step = 82.1851%
Source Step = 82.2775%
Source Step = 82.37%
Source Step = 82.4625%
Source Step = 82.5549%
vernier = 0.00457686
Source Step = 82.6798%
Source Step = 82.8184%
Source Step = 82.9571%
Source Step = 83.0958%
Source Step = 83.2345%
vernier = 0.0068653
Source Step = 83.4148%
Source Step = 83.6229%
Source Step = 83.8309%
Source Step = 84.0389%
Source Step = 84.247%
vernier = 0.0102979
Source Step = 84.507%
Source Step = 84.8191%
Source Step = 85.1312%
Source Step = 85.4432%
Source Step = 85.7553%
vernier = 0.0154469
Source Step = 85.9776%
Source Step = 86.0946%
Source Step = 86.2117%
Source Step = 86.3287%
Source Step = 86.4457%
vernier = 0.00579259
Source Step = 86.5744%
Source Step = 86.75%
Source Step = 86.9255%
Source Step = 87.101%
Source Step = 87.2766%
vernier = 0.00868889
Source Step = 87.4609%
Source Step = 87.7242%
Source Step = 87.9875%
Source Step = 88.2508%
Source Step = 88.5141%
Source Step = 88.7774%
vernier = 0.0130333
Source Step = 88.8662%
Source Step = 88.965%
Source Step = 89.0637%
Source Step = 89.1624%
Source Step = 89.2612%
vernier = 0.0048875
Source Step = 89.3994%
Source Step = 89.5475%
Source Step = 89.6956%
Source Step = 89.8437%
Source Step = 89.9918%
Source Step = 90.0474%
Source Step = 90.0844%
Source Step = 90.1214%
Source Step = 90.1585%
Source Step = 90.1955%
Source Step = 90.2325%
Source Step = 90.2695%
Source Step = 90.3066%
Source Step = 90.3436%
Source Step = 90.3806%
Source Step = 90.4176%
Source Step = 90.4547%
Source Step = 90.4917%
Source Step = 90.5287%
Source Step = 90.5657%
Source Step = 90.6028%
Source Step = 90.6398%
Source Step = 90.6768%
Source Step = 90.7139%
Source Step = 90.7509%
Source Step = 90.7879%
Source Step = 90.8249%
vernier = 0.00183281
Source Step = 90.8712%
Source Step = 90.9268%
Source Step = 90.9823%
Source Step = 91.0378%
Source Step = 91.0934%
vernier = 0.00274922
Source Step = 91.16%
Source Step = 91.2433%
Source Step = 91.3266%
Source Step = 91.41%
Source Step = 91.4933%
vernier = 0.00412383
Source Step = 91.5891%
Source Step = 91.714%
Source Step = 91.839%
Source Step = 91.964%
Source Step = 92.0889%
vernier = 0.00618574
Source Step = 92.2264%
Source Step = 92.4138%
Source Step = 92.6013%
Source Step = 92.7887%
Source Step = 92.9762%
vernier = 0.00927861
Source Step = 93.173%
Source Step = 93.4542%
Source Step = 93.7353%
Source Step = 94.0165%
Source Step = 94.2977%
Source Step = 94.5788%
vernier = 0.0139179
Source Step = 95.0006%
Source Step = 95.4224%
Source Step = 95.8441%
Source Step = 96.2659%
Source Step = 96.6876%
vernier = 0.0208769
Source Step = 97.2992%
Source Step = 97.9318%
Source Step = 98.5644%
Source Step = 99.1971%
Source Step = 99.8297%
vernier = 0.0313153
Source stepping succeeded in finding the operating point.

Warning: Simulation tolerance relaxed to achieve convergence from 8.7594851059259594e-05 to 8.7594851059260597e-05 seconds.
Warning: Simulation tolerance relaxed to achieve convergence from 8.7594851059291659e-05 to 8.7594851059292662e-05 seconds.
Total elapsed time: 4.395 seconds.

Files loaded:
C:\users\fadelrio\Documents\Ingenieria\Taller de circuitos\TP\cuarto_check\oscilador.net
C:\users\fadelrio\Documents\Ingenieria\Taller de circuitos\TP\cuarto_check\LM393A.lib
C:\users\fadelrio\Documents\Ingenieria\Taller de circuitos\TP\cuarto_check\TL082.lib
C:\users\fadelrio\AppData\Local\LTspice\lib\sub\ADI.lib

