LTspice 24.1.10 for Windows
Circuit: Z:\home\fadelrio\Documents\Ingenieria\Taller de circuitos\TP\quinto_check\fuente_conmutada_1.net
Start Time: Sun Nov 30 18:46:38 2025
Options: cshunt=1e-15  abstol=1e-10  gmin=1e-10
solver = Normal
Maximum thread count: 16
tnom = 27
temp = 27
method = modified trap
gmin = 1e-10
abstol = 1e-10
Instance "u2:x_gd_template:x_ho_stage:M_HO_PMOS": Length shorter than recommended for a level 1 MOSFET.
Instance "u2:x_gd_template:x_ho_stage:M_HO_NMOS": Length shorter than recommended for a level 1 MOSFET.
Instance "u2:x_gd_template:x_lo_stage:M_LO_PMOS": Length shorter than recommended for a level 1 MOSFET.
Instance "u2:x_gd_template:x_lo_stage:M_LO_NMOS": Length shorter than recommended for a level 1 MOSFET.
Direct Newton iteration failed to find .op point.  (Use ".option noopiter" to skip.)
Starting Gmin stepping
Gmin = 10
Gmin = 1.07374
vernier = 0.5
vernier = 0.25
vernier = 0.125
vernier = 0.0625
Gmin = 0.995033
vernier = 0.03125
vernier = 0.015625
vernier = 0.0078125
vernier = 0.00390625
vernier = 0.00195312
vernier = 0.000976562
Gmin = 1.00275
vernier = 0.000488281
Gmin = 0
Gmin stepping failed

Starting source stepping with srcstepmethod=0
Source Step = 3.0303%
Source Step = 33.3333%
Source Step = 40.1515%
Source Step = 47.7273%
Source Step = 50.0089%
Starting source stepping with srcstepmethod=1
Source Step = 3.0303%
Source Step = 33.3333%
Source Step = 50.1894%
vernier = 0.015625
Source stepping failed

Pseudo Transient failed in finding the operating point at 5.00122 µs.
Trouble finding operating point....skipping operating point for Transient analysis.
Changing Tseed to 4.88281e-09
Changing Tseed to 4.88281e-11
Changing Tseed to 4.88281e-08
Changing Tseed to 4.88281e-12
Changing Tseed to 4.88281e-07
Changing Tseed to 4.88281e-13
Changing Tseed to 4.88281e-06
Changing Tseed to 4.88281e-14
Warning: Simulation tolerance relaxed to achieve convergence from 6.7338602066653243e-07 to 6.7338602066753246e-07 seconds.
Warning: Simulation tolerance relaxed to achieve convergence from 6.7338602066753246e-07 to 6.7338602066853249e-07 seconds.
Warning: Simulation tolerance relaxed to achieve convergence from 6.7338602066853249e-07 to 6.7338602066953252e-07 seconds.
Warning: Simulation tolerance relaxed to achieve convergence from 6.7338602067153247e-07 to 6.7338602067253250e-07 seconds.
Warning: Simulation tolerance relaxed to achieve convergence from 6.7338602067453245e-07 to 6.7338602067553248e-07 seconds.
Warning: Simulation tolerance relaxed to achieve convergence from 6.7338602069353246e-07 to 6.7338602069453249e-07 seconds.
Warning: Simulation tolerance relaxed to achieve convergence from 6.7338602070053244e-07 to 6.7338602070153247e-07 seconds.
Warning: Simulation tolerance relaxed to achieve convergence from 6.7338602070253250e-07 to 6.7338602070353253e-07 seconds.
Warning: Simulation tolerance relaxed to achieve convergence from 6.7338602071053251e-07 to 6.7338602071153254e-07 seconds.
Warning: Simulation tolerance relaxed to achieve convergence from 6.7338602071153254e-07 to 6.7338602071253257e-07 seconds.
Warning: Simulation tolerance relaxed to achieve convergence from 6.7338602071253257e-07 to 6.7338602071353260e-07 seconds.
Warning: Simulation tolerance relaxed to achieve convergence from 6.7338602083953256e-07 to 6.7338602084053259e-07 seconds.
Warning: Simulation tolerance relaxed to achieve convergence from 6.7338602084353257e-07 to 6.7338602084453260e-07 seconds.
Warning: Simulation tolerance relaxed to achieve convergence from 6.7338602088353264e-07 to 6.7338602088453267e-07 seconds.
Warning: Simulation tolerance relaxed to achieve convergence from 6.7338602093353268e-07 to 6.7338602093453271e-07 seconds.
Warning: Simulation tolerance relaxed to achieve convergence from 6.7338602093453271e-07 to 6.7338602093553273e-07 seconds.
Warning: Simulation tolerance relaxed to achieve convergence from 6.7338602096653276e-07 to 6.7338602096753279e-07 seconds.
Warning: Simulation tolerance relaxed to achieve convergence from 6.7338602096753279e-07 to 6.7338602096853282e-07 seconds.
Warning: Simulation tolerance relaxed to achieve convergence from 6.7338602097953292e-07 to 6.7338602098053295e-07 seconds.
Warning: Simulation tolerance relaxed to achieve convergence from 6.7338602098053295e-07 to 6.7338602098153298e-07 seconds.
Warning: Simulation tolerance relaxed to achieve convergence from 6.7338602098853296e-07 to 6.7338602098953299e-07 seconds.
Warning: Simulation tolerance relaxed to achieve convergence from 6.7338602099953296e-07 to 6.7338602100053298e-07 seconds.
Warning: Simulation tolerance relaxed to achieve convergence from 6.7338602119553299e-07 to 6.7338602119653302e-07 seconds.
Warning: Simulation tolerance relaxed to achieve convergence from 6.7338602119653302e-07 to 6.7338602119753305e-07 seconds.
Warning: Simulation tolerance relaxed to achieve convergence from 6.7338602120053303e-07 to 6.7338602120153306e-07 seconds.
Warning: Simulation tolerance relaxed to achieve convergence from 6.7338602120253308e-07 to 6.7338602120353311e-07 seconds.
Warning: Simulation tolerance relaxed to achieve convergence from 6.7338602120553317e-07 to 6.7338602120653320e-07 seconds.
Warning: Simulation tolerance relaxed to achieve convergence from 6.7338602120753323e-07 to 6.7338602120853325e-07 seconds.
Warning: Simulation tolerance relaxed to achieve convergence from 6.7338602121453321e-07 to 6.7338602121553324e-07 seconds.
Warning: Simulation tolerance relaxed to achieve convergence from 6.7338602121553324e-07 to 6.7338602121653327e-07 seconds.
Warning: Simulation tolerance relaxed to achieve convergence from 6.7338602121853322e-07 to 6.7338602121953325e-07 seconds.
Warning: Simulation tolerance relaxed to achieve convergence from 6.7338602126353333e-07 to 6.7338602126453335e-07 seconds.
Warning: Simulation tolerance relaxed to achieve convergence from 6.7338602126453335e-07 to 6.7338602126553338e-07 seconds.
Warning: Simulation tolerance relaxed to achieve convergence from 6.7338602139253337e-07 to 6.7338602139353340e-07 seconds.
Warning: Simulation tolerance relaxed to achieve convergence from 6.7338602141053335e-07 to 6.7338602141153338e-07 seconds.
Warning: Simulation tolerance relaxed to achieve convergence from 6.7338602141153338e-07 to 6.7338602141253341e-07 seconds.
Warning: Simulation tolerance relaxed to achieve convergence from 6.7338602141453336e-07 to 6.7338602141553339e-07 seconds.
Warning: Simulation tolerance relaxed to achieve convergence from 6.7338602141553339e-07 to 6.7338602141653342e-07 seconds.
Warning: Simulation tolerance relaxed to achieve convergence from 6.7338602141653342e-07 to 6.7338602141753345e-07 seconds.
Warning: Simulation tolerance relaxed to achieve convergence from 6.7338602141853347e-07 to 6.7338602141953350e-07 seconds.
Warning: Simulation tolerance relaxed to achieve convergence from 6.7338602142553346e-07 to 6.7338602142653349e-07 seconds.
Warning: Simulation tolerance relaxed to achieve convergence from 6.7338602142653349e-07 to 6.7338602142753352e-07 seconds.
Warning: Simulation tolerance relaxed to achieve convergence from 6.7338602144153349e-07 to 6.7338602144253352e-07 seconds.
Warning: Simulation tolerance relaxed to achieve convergence from 6.7338602144453347e-07 to 6.7338602144553350e-07 seconds.
Warning: Simulation tolerance relaxed to achieve convergence from 6.7338602146353348e-07 to 6.7338602146453350e-07 seconds.
Warning: Simulation tolerance relaxed to achieve convergence from 6.7338602146453350e-07 to 6.7338602146553353e-07 seconds.
Warning: Simulation tolerance relaxed to achieve convergence from 6.7338602159153349e-07 to 6.7338602159253352e-07 seconds.
Warning: Simulation tolerance relaxed to achieve convergence from 6.7338602159253352e-07 to 6.7338602159353355e-07 seconds.
Warning: Simulation tolerance relaxed to achieve convergence from 6.7338602161353348e-07 to 6.7338602161453351e-07 seconds.
Warning: Simulation tolerance relaxed to achieve convergence from 6.7338602161553354e-07 to 6.7338602161653357e-07 seconds.
Warning: Simulation tolerance relaxed to achieve convergence from 6.7338602162153371e-07 to 6.7338602162253374e-07 seconds.
Warning: Simulation tolerance relaxed to achieve convergence from 6.7338602162353376e-07 to 6.7338602162453379e-07 seconds.
Warning: Simulation tolerance relaxed to achieve convergence from 6.7338602162753377e-07 to 6.7338602162853380e-07 seconds.
Warning: Simulation tolerance relaxed to achieve convergence from 6.7338602162853380e-07 to 6.7338602162953383e-07 seconds.
Warning: Simulation tolerance relaxed to achieve convergence from 6.7338602162953383e-07 to 6.7338602163053386e-07 seconds.
Warning: Simulation tolerance relaxed to achieve convergence from 6.7338602163053386e-07 to 6.7338602163153388e-07 seconds.
Warning: Simulation tolerance relaxed to achieve convergence from 6.7338602163153388e-07 to 6.7338602163253391e-07 seconds.
Warning: Simulation tolerance relaxed to achieve convergence from 6.7338602163253391e-07 to 6.7338602163353394e-07 seconds.
Warning: Simulation tolerance relaxed to achieve convergence from 6.7338602163353394e-07 to 6.7338602163453397e-07 seconds.
Warning: Simulation tolerance relaxed to achieve convergence from 6.7338602163453397e-07 to 6.7338602163553400e-07 seconds.
Warning: Simulation tolerance relaxed to achieve convergence from 6.7338602164353401e-07 to 6.7338602164453404e-07 seconds.
Warning: Simulation tolerance relaxed to achieve convergence from 6.7338602164653399e-07 to 6.7338602164753402e-07 seconds.
Warning: Simulation tolerance relaxed to achieve convergence from 6.7338602165053400e-07 to 6.7338602165153403e-07 seconds.
Warning: Simulation tolerance relaxed to achieve convergence from 6.7338608328653420e-07 to 6.7338608328753423e-07 seconds.
Warning: Simulation tolerance relaxed to achieve convergence from 6.7338608329453422e-07 to 6.7338608329553424e-07 seconds.
Warning: Simulation tolerance relaxed to achieve convergence from 6.7338608330953422e-07 to 6.7338608331053424e-07 seconds.
Warning: Simulation tolerance relaxed to achieve convergence from 6.7338608331053424e-07 to 6.7338608331153427e-07 seconds.
Warning: Simulation tolerance relaxed to achieve convergence from 6.7338608331253430e-07 to 6.7338608331353433e-07 seconds.
Warning: Simulation tolerance relaxed to achieve convergence from 6.7338608331353433e-07 to 6.7338608331453436e-07 seconds.
Warning: Simulation tolerance relaxed to achieve convergence from 6.7338608332053432e-07 to 6.7338608332153434e-07 seconds.
Warning: Simulation tolerance relaxed to achieve convergence from 6.7338608332753430e-07 to 6.7338608332853433e-07 seconds.
Warning: Simulation tolerance relaxed to achieve convergence from 6.7338608332953436e-07 to 6.7338608333053439e-07 seconds.
Warning: Simulation tolerance relaxed to achieve convergence from 6.7338608333053439e-07 to 6.7338608333153442e-07 seconds.
Warning: Simulation tolerance relaxed to achieve convergence from 6.7338608333153442e-07 to 6.7338608333253444e-07 seconds.
Warning: Simulation tolerance relaxed to achieve convergence from 6.7338608333253444e-07 to 6.7338608333353447e-07 seconds.
Warning: Simulation tolerance relaxed to achieve convergence from 6.7338608333553453e-07 to 6.7338608333653456e-07 seconds.
Warning: Simulation tolerance relaxed to achieve convergence from 6.7338608339853451e-07 to 6.7338608339953454e-07 seconds.
Warning: Simulation tolerance relaxed to achieve convergence from 6.7338608341653449e-07 to 6.7338608341753452e-07 seconds.
Warning: Simulation tolerance relaxed to achieve convergence from 6.7338608341753452e-07 to 6.7338608341853455e-07 seconds.
Warning: Simulation tolerance relaxed to achieve convergence from 6.7338608341853455e-07 to 6.7338608341953457e-07 seconds.
Warning: Simulation tolerance relaxed to achieve convergence from 6.7338608342153463e-07 to 6.7338608342253466e-07 seconds.
Warning: Simulation tolerance relaxed to achieve convergence from 6.7338608342253466e-07 to 6.7338608342353469e-07 seconds.
Warning: Simulation tolerance relaxed to achieve convergence from 6.7338608342453472e-07 to 6.7338608342553474e-07 seconds.
Warning: Simulation tolerance relaxed to achieve convergence from 6.7338608342553474e-07 to 6.7338608342653477e-07 seconds.
Warning: Simulation tolerance relaxed to achieve convergence from 6.7338608342753480e-07 to 6.7338608342853483e-07 seconds.
Warning: Simulation tolerance relaxed to achieve convergence from 6.7338608342853483e-07 to 6.7338608342953486e-07 seconds.
Warning: Simulation tolerance relaxed to achieve convergence from 6.7338608343553481e-07 to 6.7338608343653484e-07 seconds.
Warning: Simulation tolerance relaxed to achieve convergence from 6.7338608345053482e-07 to 6.7338608345153484e-07 seconds.
Warning: Simulation tolerance relaxed to achieve convergence from 6.7338608345353490e-07 to 6.7338608345453493e-07 seconds.
Warning: Simulation tolerance relaxed to achieve convergence from 6.7338608345753491e-07 to 6.7338608345853494e-07 seconds.
Warning: Simulation tolerance relaxed to achieve convergence from 6.7338608345953496e-07 to 6.7338608346053499e-07 seconds.
Warning: Simulation tolerance relaxed to achieve convergence from 6.7338608346053499e-07 to 6.7338608346153502e-07 seconds.
Warning: Simulation tolerance relaxed to achieve convergence from 6.7338608346753498e-07 to 6.7338608346853501e-07 seconds.
Warning: Simulation tolerance relaxed to achieve convergence from 6.7338608346853501e-07 to 6.7338608346953503e-07 seconds.
Warning: Simulation tolerance relaxed to achieve convergence from 6.7338608375553497e-07 to 6.7338608375653500e-07 seconds.
Warning: Simulation tolerance relaxed to achieve convergence from 6.7338608375953498e-07 to 6.7338608376053500e-07 seconds.
Warning: Simulation tolerance relaxed to achieve convergence from 6.7338608376053500e-07 to 6.7338608376153503e-07 seconds.
Warning: Simulation tolerance relaxed to achieve convergence from 6.7338608376153503e-07 to 6.7338608376253506e-07 seconds.
Warning: Simulation tolerance relaxed to achieve convergence from 6.7338608378053504e-07 to 6.7338608378153507e-07 seconds.
Warning: Simulation tolerance relaxed to achieve convergence from 6.7338608380253503e-07 to 6.7338608380353505e-07 seconds.
Warning: Simulation tolerance relaxed to achieve convergence from 6.7338608380553501e-07 to 6.7338608380653503e-07 seconds.
Warning: Simulation tolerance relaxed to achieve convergence from 6.7338608381053504e-07 to 6.7338608381153507e-07 seconds.
Warning: Simulation tolerance relaxed to achieve convergence from 6.7338608381353502e-07 to 6.7338608381453505e-07 seconds.
Warning: Simulation tolerance relaxed to achieve convergence from 6.7338608381953508e-07 to 6.7338608382053511e-07 seconds.
Warning: Simulation tolerance relaxed to achieve convergence from 6.7338608382653507e-07 to 6.7338608382753510e-07 seconds.
Warning: Simulation tolerance relaxed to achieve convergence from 6.7338608382953505e-07 to 6.7338608383053508e-07 seconds.
Warning: Simulation tolerance relaxed to achieve convergence from 6.7338608383053508e-07 to 6.7338608383153511e-07 seconds.
Warning: Simulation tolerance relaxed to achieve convergence from 6.7338608383453508e-07 to 6.7338608383553511e-07 seconds.
Warning: Simulation tolerance relaxed to achieve convergence from 6.7338608383553511e-07 to 6.7338608383653514e-07 seconds.
Warning: Simulation tolerance relaxed to achieve convergence from 6.7338608386653514e-07 to 6.7338608386753517e-07 seconds.
Warning: Simulation tolerance relaxed to achieve convergence from 6.7338608388253517e-07 to 6.7338608388353520e-07 seconds.
Warning: Simulation tolerance relaxed to achieve convergence from 6.7338608388753521e-07 to 6.7338608388853523e-07 seconds.
Warning: Simulation tolerance relaxed to achieve convergence from 6.7338608388853523e-07 to 6.7338608388953526e-07 seconds.
Warning: Simulation tolerance relaxed to achieve convergence from 6.7338608389053529e-07 to 6.7338608389153532e-07 seconds.
Warning: Simulation tolerance relaxed to achieve convergence from 6.7338608389153532e-07 to 6.7338608389253535e-07 seconds.
Warning: Simulation tolerance relaxed to achieve convergence from 6.7338608389253535e-07 to 6.7338608389353538e-07 seconds.
Warning: Simulation tolerance relaxed to achieve convergence from 6.7338608389953533e-07 to 6.7338608390053536e-07 seconds.
Warning: Simulation tolerance relaxed to achieve convergence from 6.7338608390053536e-07 to 6.7338608390153539e-07 seconds.
Warning: Simulation tolerance relaxed to achieve convergence from 6.7338608390153539e-07 to 6.7338608390253542e-07 seconds.
Warning: Simulation tolerance relaxed to achieve convergence from 6.7338608390253542e-07 to 6.7338608390353545e-07 seconds.
Warning: Simulation tolerance relaxed to achieve convergence from 6.7338608390353545e-07 to 6.7338608390453548e-07 seconds.
Warning: Simulation tolerance relaxed to achieve convergence from 6.7338608390453548e-07 to 6.7338608390553550e-07 seconds.
Warning: Simulation tolerance relaxed to achieve convergence from 6.7338608390553550e-07 to 6.7338608390653553e-07 seconds.
Warning: Simulation tolerance relaxed to achieve convergence from 6.7338608390653553e-07 to 6.7338608390753556e-07 seconds.
Warning: Simulation tolerance relaxed to achieve convergence from 6.7338608390753556e-07 to 6.7338608390853559e-07 seconds.
Warning: Simulation tolerance relaxed to achieve convergence from 6.7338608391853555e-07 to 6.7338608391953558e-07 seconds.
Warning: Simulation tolerance relaxed to achieve convergence from 6.7338608391953558e-07 to 6.7338608392053561e-07 seconds.
Warning: Simulation tolerance relaxed to achieve convergence from 6.7338608392053561e-07 to 6.7338608392153564e-07 seconds.
Warning: Simulation tolerance relaxed to achieve convergence from 6.7338608392353569e-07 to 6.7338608392453572e-07 seconds.
Warning: Simulation tolerance relaxed to achieve convergence from 6.7338608392653567e-07 to 6.7338608392753570e-07 seconds.
Warning: Simulation tolerance relaxed to achieve convergence from 6.7338608392753570e-07 to 6.7338608392853573e-07 seconds.
Warning: Simulation tolerance relaxed to achieve convergence from 6.7338608392853573e-07 to 6.7338608392953576e-07 seconds.
Warning: Simulation tolerance relaxed to achieve convergence from 6.7338608392953576e-07 to 6.7338608393053579e-07 seconds.
Warning: Simulation tolerance relaxed to achieve convergence from 6.7338608393153581e-07 to 6.7338608393253584e-07 seconds.
Warning: Simulation tolerance relaxed to achieve convergence from 6.7338608393453590e-07 to 6.7338608393553593e-07 seconds.
Warning: Simulation tolerance relaxed to achieve convergence from 6.7338608393553593e-07 to 6.7338608393653596e-07 seconds.
Warning: Simulation tolerance relaxed to achieve convergence from 6.7338608393653596e-07 to 6.7338608393753598e-07 seconds.
Warning: Simulation tolerance relaxed to achieve convergence from 6.7338608394153599e-07 to 6.7338608394253602e-07 seconds.
Warning: Simulation tolerance relaxed to achieve convergence from 6.7338608394553600e-07 to 6.7338608394653603e-07 seconds.
Warning: Simulation tolerance relaxed to achieve convergence from 6.7338608394853598e-07 to 6.7338608394953601e-07 seconds.
Warning: Simulation tolerance relaxed to achieve convergence from 6.7338608395253599e-07 to 6.7338608395353601e-07 seconds.
Warning: Simulation tolerance relaxed to achieve convergence from 6.7338608395353601e-07 to 6.7338608395453604e-07 seconds.
Warning: Simulation tolerance relaxed to achieve convergence from 6.7338608395653599e-07 to 6.7338608395753602e-07 seconds.
Warning: Simulation tolerance relaxed to achieve convergence from 6.7338608410453605e-07 to 6.7338608410553608e-07 seconds.
Warning: Simulation tolerance relaxed to achieve convergence from 6.7338608422353602e-07 to 6.7338608422453605e-07 seconds.
Warning: Simulation tolerance relaxed to achieve convergence from 6.7338608422453605e-07 to 6.7338608422553608e-07 seconds.
Warning: Simulation tolerance relaxed to achieve convergence from 6.7338608422553608e-07 to 6.7338608422653611e-07 seconds.
Warning: Simulation tolerance relaxed to achieve convergence from 6.7338608422953609e-07 to 6.7338608423053612e-07 seconds.
Warning: Simulation tolerance relaxed to achieve convergence from 6.7338608424653604e-07 to 6.7338608424753607e-07 seconds.
Warning: Simulation tolerance relaxed to achieve convergence from 6.7338608425053605e-07 to 6.7338608425153607e-07 seconds.
Warning: Simulation tolerance relaxed to achieve convergence from 6.7338608425353613e-07 to 6.7338608425453616e-07 seconds.
Warning: Simulation tolerance relaxed to achieve convergence from 6.7338608425453616e-07 to 6.7338608425553619e-07 seconds.
Warning: Simulation tolerance relaxed to achieve convergence from 6.7338608425553619e-07 to 6.7338608425653622e-07 seconds.
Warning: Simulation tolerance relaxed to achieve convergence from 6.7338608426953616e-07 to 6.7338608427053619e-07 seconds.
Warning: Simulation tolerance relaxed to achieve convergence from 6.7338608427053619e-07 to 6.7338608427153622e-07 seconds.
Warning: Simulation tolerance relaxed to achieve convergence from 6.7338608427153622e-07 to 6.7338608427253624e-07 seconds.
Warning: Simulation tolerance relaxed to achieve convergence from 6.7338608427453620e-07 to 6.7338608427553622e-07 seconds.
Warning: Simulation tolerance relaxed to achieve convergence from 6.7338608427553622e-07 to 6.7338608427653625e-07 seconds.
Warning: Simulation tolerance relaxed to achieve convergence from 6.7338608428253621e-07 to 6.7338608428353624e-07 seconds.
Warning: Simulation tolerance relaxed to achieve convergence from 6.7338608428353624e-07 to 6.7338608428453627e-07 seconds.
Warning: Simulation tolerance relaxed to achieve convergence from 6.7338608428653632e-07 to 6.7338608428753635e-07 seconds.
Warning: Simulation tolerance relaxed to achieve convergence from 6.7338608429053633e-07 to 6.7338608429153636e-07 seconds.
Warning: Simulation tolerance relaxed to achieve convergence from 6.7338608429353631e-07 to 6.7338608429453634e-07 seconds.
Warning: Simulation tolerance relaxed to achieve convergence from 6.7338608429453634e-07 to 6.7338608429553637e-07 seconds.
Warning: Simulation tolerance relaxed to achieve convergence from 6.7338608429653639e-07 to 6.7338608429753642e-07 seconds.
Warning: Simulation tolerance relaxed to achieve convergence from 6.7338608430553644e-07 to 6.7338608430653646e-07 seconds.
Warning: Simulation tolerance relaxed to achieve convergence from 6.7338608432353642e-07 to 6.7338608432453644e-07 seconds.
Warning: Simulation tolerance relaxed to achieve convergence from 6.7338608433153643e-07 to 6.7338608433253646e-07 seconds.
Warning: Simulation tolerance relaxed to achieve convergence from 6.7338608433853652e-07 to 6.7338608433953655e-07 seconds.
Warning: Simulation tolerance relaxed to achieve convergence from 6.7338608434153650e-07 to 6.7338608434253653e-07 seconds.
Warning: Simulation tolerance relaxed to achieve convergence from 6.7338608434253653e-07 to 6.7338608434353656e-07 seconds.
Warning: Simulation tolerance relaxed to achieve convergence from 6.7338608434353656e-07 to 6.7338608434453659e-07 seconds.
Warning: Simulation tolerance relaxed to achieve convergence from 6.7338608435053654e-07 to 6.7338608435153657e-07 seconds.
Warning: Simulation tolerance relaxed to achieve convergence from 6.7338608435153657e-07 to 6.7338608435253660e-07 seconds.
Warning: Simulation tolerance relaxed to achieve convergence from 6.7338608435853656e-07 to 6.7338608435953659e-07 seconds.
Warning: Simulation tolerance relaxed to achieve convergence from 6.7338608436753660e-07 to 6.7338608436853663e-07 seconds.
Warning: Simulation tolerance relaxed to achieve convergence from 6.7338608436853663e-07 to 6.7338608436953666e-07 seconds.
Warning: Simulation tolerance relaxed to achieve convergence from 6.7338608437153661e-07 to 6.7338608437253664e-07 seconds.
Warning: Simulation tolerance relaxed to achieve convergence from 6.7338608437253664e-07 to 6.7338608437353667e-07 seconds.
Warning: Simulation tolerance relaxed to achieve convergence from 6.7338608437453669e-07 to 6.7338608437553672e-07 seconds.
Warning: Simulation tolerance relaxed to achieve convergence from 6.7338608437953673e-07 to 6.7338608438053676e-07 seconds.
Warning: Simulation tolerance relaxed to achieve convergence from 6.7338608438153679e-07 to 6.7338608438253681e-07 seconds.
Warning: Simulation tolerance relaxed to achieve convergence from 6.7338608439253678e-07 to 6.7338608439353681e-07 seconds.
Warning: Simulation tolerance relaxed to achieve convergence from 6.7338608439553676e-07 to 6.7338608439653679e-07 seconds.
Warning: Simulation tolerance relaxed to achieve convergence from 6.7338608440053679e-07 to 6.7338608440153682e-07 seconds.
Warning: Simulation tolerance relaxed to achieve convergence from 6.7338608440153682e-07 to 6.7338608440253685e-07 seconds.
Warning: Simulation tolerance relaxed to achieve convergence from 6.7338608440553683e-07 to 6.7338608440653686e-07 seconds.
Warning: Simulation tolerance relaxed to achieve convergence from 6.7338608440853681e-07 to 6.7338608440953684e-07 seconds.
Warning: Simulation tolerance relaxed to achieve convergence from 6.7338608441253681e-07 to 6.7338608441353684e-07 seconds.
Warning: Simulation tolerance relaxed to achieve convergence from 6.7338608441553679e-07 to 6.7338608441653682e-07 seconds.
Warning: Simulation tolerance relaxed to achieve convergence from 6.7338608441853677e-07 to 6.7338608441953680e-07 seconds.
Warning: Simulation tolerance relaxed to achieve convergence from 6.7338608442053683e-07 to 6.7338608442153686e-07 seconds.
Warning: Simulation tolerance relaxed to achieve convergence from 6.7338608442353681e-07 to 6.7338608442453684e-07 seconds.
Warning: Simulation tolerance relaxed to achieve convergence from 6.7338608442453684e-07 to 6.7338608442553686e-07 seconds.
Warning: Simulation tolerance relaxed to achieve convergence from 6.7338608442753692e-07 to 6.7338608442853695e-07 seconds.
Warning: Simulation tolerance relaxed to achieve convergence from 6.7338608443053690e-07 to 6.7338608443153693e-07 seconds.
Warning: Simulation tolerance relaxed to achieve convergence from 6.7338608444153689e-07 to 6.7338608444253692e-07 seconds.
Warning: Simulation tolerance relaxed to achieve convergence from 6.7338608444253692e-07 to 6.7338608444353695e-07 seconds.
Warning: Simulation tolerance relaxed to achieve convergence from 6.7338608446553694e-07 to 6.7338608446653697e-07 seconds.
Warning: Simulation tolerance relaxed to achieve convergence from 6.7338608446753699e-07 to 6.7338608446853702e-07 seconds.
Warning: Simulation tolerance relaxed to achieve convergence from 6.7338608446853702e-07 to 6.7338608446953705e-07 seconds.
Warning: Simulation tolerance relaxed to achieve convergence from 6.7338608447153711e-07 to 6.7338608447253713e-07 seconds.
Warning: Simulation tolerance relaxed to achieve convergence from 6.7338608447253713e-07 to 6.7338608447353716e-07 seconds.
Warning: Simulation tolerance relaxed to achieve convergence from 6.7338608447353716e-07 to 6.7338608447453719e-07 seconds.
Warning: Simulation tolerance relaxed to achieve convergence from 6.7338608447653714e-07 to 6.7338608447753717e-07 seconds.
Warning: Simulation tolerance relaxed to achieve convergence from 6.7338608451053715e-07 to 6.7338608451153718e-07 seconds.
Warning: Simulation tolerance relaxed to achieve convergence from 6.7338608451153718e-07 to 6.7338608451253721e-07 seconds.
Warning: Simulation tolerance relaxed to achieve convergence from 6.7338608451553729e-07 to 6.7338608451653732e-07 seconds.
Warning: Simulation tolerance relaxed to achieve convergence from 6.7338608451653732e-07 to 6.7338608451753735e-07 seconds.
Warning: Simulation tolerance relaxed to achieve convergence from 6.7338608451753735e-07 to 6.7338608451853738e-07 seconds.
Warning: Simulation tolerance relaxed to achieve convergence from 6.7338608452453733e-07 to 6.7338608452553736e-07 seconds.
Warning: Simulation tolerance relaxed to achieve convergence from 6.7338608453553733e-07 to 6.7338608453653736e-07 seconds.
Warning: Simulation tolerance relaxed to achieve convergence from 6.7338608453653736e-07 to 6.7338608453753738e-07 seconds.
Warning: Simulation tolerance relaxed to achieve convergence from 6.7338608453753738e-07 to 6.7338608453853741e-07 seconds.
Warning: Simulation tolerance relaxed to achieve convergence from 6.7338608454053747e-07 to 6.7338608454153750e-07 seconds.
Warning: Simulation tolerance relaxed to achieve convergence from 6.7338608454953751e-07 to 6.7338608455053754e-07 seconds.
Warning: Simulation tolerance relaxed to achieve convergence from 6.7338608455353752e-07 to 6.7338608455453755e-07 seconds.
Warning: Simulation tolerance relaxed to achieve convergence from 6.7338608455753753e-07 to 6.7338608455853755e-07 seconds.
Warning: Simulation tolerance relaxed to achieve convergence from 6.7338608456053751e-07 to 6.7338608456153753e-07 seconds.
Warning: Simulation tolerance relaxed to achieve convergence from 6.7338608456153753e-07 to 6.7338608456253756e-07 seconds.
Warning: Simulation tolerance relaxed to achieve convergence from 6.7338608456253756e-07 to 6.7338608456353759e-07 seconds.
Warning: Simulation tolerance relaxed to achieve convergence from 6.7338608456353759e-07 to 6.7338608456453762e-07 seconds.
Warning: Simulation tolerance relaxed to achieve convergence from 6.7338608456753760e-07 to 6.7338608456853763e-07 seconds.
Warning: Simulation tolerance relaxed to achieve convergence from 6.7338608457053758e-07 to 6.7338608457153760e-07 seconds.
Warning: Simulation tolerance relaxed to achieve convergence from 6.7338608457953783e-07 to 6.7338608458053786e-07 seconds.
Warning: Simulation tolerance relaxed to achieve convergence from 6.7338608458053786e-07 to 6.7338608458153789e-07 seconds.
Warning: Simulation tolerance relaxed to achieve convergence from 6.7338608458253792e-07 to 6.7338608458353794e-07 seconds.
Warning: Simulation tolerance relaxed to achieve convergence from 6.7338608458353794e-07 to 6.7338608458453797e-07 seconds.
Warning: Simulation tolerance relaxed to achieve convergence from 6.7338608459053793e-07 to 6.7338608459153796e-07 seconds.
Warning: Simulation tolerance relaxed to achieve convergence from 6.7338608459253799e-07 to 6.7338608459353801e-07 seconds.
Warning: Simulation tolerance relaxed to achieve convergence from 6.7338608459453804e-07 to 6.7338608459553807e-07 seconds.
Warning: Simulation tolerance relaxed to achieve convergence from 6.7338608459653810e-07 to 6.7338608459753813e-07 seconds.
Warning: Simulation tolerance relaxed to achieve convergence from 6.7338608460453811e-07 to 6.7338608460553814e-07 seconds.
Warning: Simulation tolerance relaxed to achieve convergence from 6.7338608460553814e-07 to 6.7338608460653817e-07 seconds.
Warning: Simulation tolerance relaxed to achieve convergence from 6.7338608460653817e-07 to 6.7338608460753820e-07 seconds.
Warning: Simulation tolerance relaxed to achieve convergence from 6.7338608460753820e-07 to 6.7338608460853823e-07 seconds.
Warning: Simulation tolerance relaxed to achieve convergence from 6.7338608460853823e-07 to 6.7338608460953826e-07 seconds.
Warning: Simulation tolerance relaxed to achieve convergence from 6.7338608461453829e-07 to 6.7338608461553832e-07 seconds.
Warning: Simulation tolerance relaxed to achieve convergence from 6.7338608461553832e-07 to 6.7338608461653835e-07 seconds.
Warning: Simulation tolerance relaxed to achieve convergence from 6.7338608463753831e-07 to 6.7338608463853833e-07 seconds.
Warning: Simulation tolerance relaxed to achieve convergence from 6.7338608464153831e-07 to 6.7338608464253834e-07 seconds.
Warning: Simulation tolerance relaxed to achieve convergence from 6.7338608464453829e-07 to 6.7338608464553832e-07 seconds.
Warning: Simulation tolerance relaxed to achieve convergence from 6.7338608464553832e-07 to 6.7338608464653835e-07 seconds.
Warning: Simulation tolerance relaxed to achieve convergence from 6.7338608464753838e-07 to 6.7338608464853841e-07 seconds.
Warning: Simulation tolerance relaxed to achieve convergence from 6.7338608465053836e-07 to 6.7338608465153838e-07 seconds.
Warning: Simulation tolerance relaxed to achieve convergence from 6.7338608465153838e-07 to 6.7338608465253841e-07 seconds.
Warning: Simulation tolerance relaxed to achieve convergence from 6.7338608465253841e-07 to 6.7338608465353844e-07 seconds.
Warning: Simulation tolerance relaxed to achieve convergence from 6.7338608465353844e-07 to 6.7338608465453847e-07 seconds.
Warning: Simulation tolerance relaxed to achieve convergence from 6.7338608465453847e-07 to 6.7338608465553850e-07 seconds.
Warning: Simulation tolerance relaxed to achieve convergence from 6.7338608465753845e-07 to 6.7338608465853848e-07 seconds.
Warning: Simulation tolerance relaxed to achieve convergence from 6.7338608467553843e-07 to 6.7338608467653846e-07 seconds.
Warning: Simulation tolerance relaxed to achieve convergence from 6.7338608467653846e-07 to 6.7338608467753848e-07 seconds.
Warning: Simulation tolerance relaxed to achieve convergence from 6.7338608467753848e-07 to 6.7338608467853851e-07 seconds.
Warning: Simulation tolerance relaxed to achieve convergence from 6.7338608467853851e-07 to 6.7338608467953854e-07 seconds.
Warning: Simulation tolerance relaxed to achieve convergence from 6.7338608468053857e-07 to 6.7338608468153860e-07 seconds.
Warning: Simulation tolerance relaxed to achieve convergence from 6.7338608468153860e-07 to 6.7338608468253863e-07 seconds.
Warning: Simulation tolerance relaxed to achieve convergence from 6.7338608468353865e-07 to 6.7338608468453868e-07 seconds.
Warning: Simulation tolerance relaxed to achieve convergence from 6.7338608469053875e-07 to 6.7338608469153877e-07 seconds.
Warning: Simulation tolerance relaxed to achieve convergence from 6.7338608469453875e-07 to 6.7338608469553878e-07 seconds.
Warning: Simulation tolerance relaxed to achieve convergence from 6.7338608469553878e-07 to 6.7338608469653881e-07 seconds.
Warning: Simulation tolerance relaxed to achieve convergence from 6.7338608469853876e-07 to 6.7338608469953879e-07 seconds.
Warning: Simulation tolerance relaxed to achieve convergence from 6.7338608469953879e-07 to 6.7338608470053882e-07 seconds.
Warning: Simulation tolerance relaxed to achieve convergence from 6.7338608470353880e-07 to 6.7338608470453882e-07 seconds.
Warning: Simulation tolerance relaxed to achieve convergence from 6.7338608471353887e-07 to 6.7338608471453889e-07 seconds.
Warning: Simulation tolerance relaxed to achieve convergence from 6.7338608471753887e-07 to 6.7338608471853890e-07 seconds.
Warning: Simulation tolerance relaxed to achieve convergence from 6.7338608472253902e-07 to 6.7338608472353904e-07 seconds.
Warning: Simulation tolerance relaxed to achieve convergence from 6.7338608472353904e-07 to 6.7338608472453907e-07 seconds.
Warning: Simulation tolerance relaxed to achieve convergence from 6.7338608472453907e-07 to 6.7338608472553910e-07 seconds.
Warning: Simulation tolerance relaxed to achieve convergence from 6.7338608472553910e-07 to 6.7338608472653913e-07 seconds.
Warning: Simulation tolerance relaxed to achieve convergence from 6.7338608472653913e-07 to 6.7338608472753916e-07 seconds.
Warning: Simulation tolerance relaxed to achieve convergence from 6.7338608474853911e-07 to 6.7338608474953914e-07 seconds.
Warning: Simulation tolerance relaxed to achieve convergence from 6.7338608475253912e-07 to 6.7338608475353915e-07 seconds.
Warning: Simulation tolerance relaxed to achieve convergence from 6.7338608475453918e-07 to 6.7338608475553921e-07 seconds.
Warning: Simulation tolerance relaxed to achieve convergence from 6.7338608476253919e-07 to 6.7338608476353922e-07 seconds.
Warning: Simulation tolerance relaxed to achieve convergence from 6.7338608476953918e-07 to 6.7338608477053921e-07 seconds.
Warning: Simulation tolerance relaxed to achieve convergence from 6.7338608477153924e-07 to 6.7338608477253926e-07 seconds.
Warning: Simulation tolerance relaxed to achieve convergence from 6.7338608477453921e-07 to 6.7338608477553924e-07 seconds.
Warning: Simulation tolerance relaxed to achieve convergence from 6.7338608477953925e-07 to 6.7338608478053928e-07 seconds.
Warning: Simulation tolerance relaxed to achieve convergence from 6.7338608478053928e-07 to 6.7338608478153931e-07 seconds.
Warning: Simulation tolerance relaxed to achieve convergence from 6.7338608478153931e-07 to 6.7338608478253933e-07 seconds.
Warning: Simulation tolerance relaxed to achieve convergence from 6.7338608478253933e-07 to 6.7338608478353936e-07 seconds.
Warning: Simulation tolerance relaxed to achieve convergence from 6.7338608478653934e-07 to 6.7338608478753937e-07 seconds.
Warning: Simulation tolerance relaxed to achieve convergence from 6.7338608478753937e-07 to 6.7338608478853940e-07 seconds.
Warning: Simulation tolerance relaxed to achieve convergence from 6.7338608478853940e-07 to 6.7338608478953943e-07 seconds.
Warning: Simulation tolerance relaxed to achieve convergence from 6.7338608478953943e-07 to 6.7338608479053946e-07 seconds.
Warning: Simulation tolerance relaxed to achieve convergence from 6.7338608479053946e-07 to 6.7338608479153948e-07 seconds.
Warning: Simulation tolerance relaxed to achieve convergence from 6.7338608479153948e-07 to 6.7338608479253951e-07 seconds.
Warning: Simulation tolerance relaxed to achieve convergence from 6.7338608479453946e-07 to 6.7338608479553949e-07 seconds.
Warning: Simulation tolerance relaxed to achieve convergence from 6.7338608479653952e-07 to 6.7338608479753955e-07 seconds.
Warning: Simulation tolerance relaxed to achieve convergence from 6.7338608479953960e-07 to 6.7338608480053963e-07 seconds.
Warning: Simulation tolerance relaxed to achieve convergence from 6.7338608480053963e-07 to 6.7338608480153966e-07 seconds.
Warning: Simulation tolerance relaxed to achieve convergence from 6.7338608480453964e-07 to 6.7338608480553967e-07 seconds.
Warning: Simulation tolerance relaxed to achieve convergence from 6.7338608480553967e-07 to 6.7338608480653970e-07 seconds.
Warning: Simulation tolerance relaxed to achieve convergence from 6.7338608480653970e-07 to 6.7338608480753972e-07 seconds.
Warning: Simulation tolerance relaxed to achieve convergence from 6.7338608480753972e-07 to 6.7338608480853975e-07 seconds.
Warning: Simulation tolerance relaxed to achieve convergence from 6.7338608480853975e-07 to 6.7338608480953978e-07 seconds.
Warning: Simulation tolerance relaxed to achieve convergence from 6.7338608480953978e-07 to 6.7338608481053981e-07 seconds.
Warning: Simulation tolerance relaxed to achieve convergence from 6.7338608484053981e-07 to 6.7338608484153984e-07 seconds.
Warning: Simulation tolerance relaxed to achieve convergence from 6.7338608484153984e-07 to 6.7338608484253987e-07 seconds.
Warning: Simulation tolerance relaxed to achieve convergence from 6.7338608484253987e-07 to 6.7338608484353989e-07 seconds.
Warning: Simulation tolerance relaxed to achieve convergence from 6.7338608484353989e-07 to 6.7338608484453992e-07 seconds.
Warning: Simulation tolerance relaxed to achieve convergence from 6.7338608484453992e-07 to 6.7338608484553995e-07 seconds.
Warning: Simulation tolerance relaxed to achieve convergence from 6.7338608484853993e-07 to 6.7338608484953996e-07 seconds.
Warning: Simulation tolerance relaxed to achieve convergence from 6.7338608485153991e-07 to 6.7338608485253994e-07 seconds.
Warning: Simulation tolerance relaxed to achieve convergence from 6.7338608485453989e-07 to 6.7338608485553992e-07 seconds.
Warning: Simulation tolerance relaxed to achieve convergence from 6.7338608486253990e-07 to 6.7338608486353993e-07 seconds.
Warning: Simulation tolerance relaxed to achieve convergence from 6.7338608486353993e-07 to 6.7338608486453996e-07 seconds.
Warning: Simulation tolerance relaxed to achieve convergence from 6.7338608486553999e-07 to 6.7338608486654002e-07 seconds.
Warning: Simulation tolerance relaxed to achieve convergence from 6.7338608486654002e-07 to 6.7338608486754004e-07 seconds.
Warning: Simulation tolerance relaxed to achieve convergence from 6.7338608487054002e-07 to 6.7338608487154005e-07 seconds.
Warning: Simulation tolerance relaxed to achieve convergence from 6.7338608487154005e-07 to 6.7338608487254008e-07 seconds.
Warning: Simulation tolerance relaxed to achieve convergence from 6.7338608487254008e-07 to 6.7338608487354011e-07 seconds.
Warning: Simulation tolerance relaxed to achieve convergence from 6.7338608487554006e-07 to 6.7338608487654009e-07 seconds.
Warning: Simulation tolerance relaxed to achieve convergence from 6.7338608487654009e-07 to 6.7338608487754012e-07 seconds.
Warning: Simulation tolerance relaxed to achieve convergence from 6.7338608488054009e-07 to 6.7338608488154012e-07 seconds.
Warning: Simulation tolerance relaxed to achieve convergence from 6.7338608488154012e-07 to 6.7338608488254015e-07 seconds.
Warning: Simulation tolerance relaxed to achieve convergence from 6.7338608488854011e-07 to 6.7338608488954014e-07 seconds.
Warning: Simulation tolerance relaxed to achieve convergence from 6.7338608489154009e-07 to 6.7338608489254012e-07 seconds.
Warning: Simulation tolerance relaxed to achieve convergence from 6.7338608489254012e-07 to 6.7338608489354014e-07 seconds.
Warning: Simulation tolerance relaxed to achieve convergence from 6.7338608489354014e-07 to 6.7338608489454017e-07 seconds.
Warning: Simulation tolerance relaxed to achieve convergence from 6.7338608491654016e-07 to 6.7338608491754019e-07 seconds.
Warning: Simulation tolerance relaxed to achieve convergence from 6.7338608491954014e-07 to 6.7338608492054017e-07 seconds.
Warning: Simulation tolerance relaxed to achieve convergence from 6.7338608493654009e-07 to 6.7338608493754012e-07 seconds.
Warning: Simulation tolerance relaxed to achieve convergence from 6.7338608497354018e-07 to 6.7338608497454021e-07 seconds.
Warning: Simulation tolerance relaxed to achieve convergence from 6.7338608497454021e-07 to 6.7338608497554024e-07 seconds.
Warning: Simulation tolerance relaxed to achieve convergence from 6.7338608497554024e-07 to 6.7338608497654027e-07 seconds.
Warning: Simulation tolerance relaxed to achieve convergence from 6.7338608497654027e-07 to 6.7338608497754030e-07 seconds.
Warning: Simulation tolerance relaxed to achieve convergence from 6.7338608497754030e-07 to 6.7338608497854032e-07 seconds.
Warning: Simulation tolerance relaxed to achieve convergence from 6.7338608497854032e-07 to 6.7338608497954035e-07 seconds.
Warning: Simulation tolerance relaxed to achieve convergence from 6.7338608498054038e-07 to 6.7338608498154041e-07 seconds.
Warning: Simulation tolerance relaxed to achieve convergence from 6.7338608498754037e-07 to 6.7338608498854039e-07 seconds.
Warning: Simulation tolerance relaxed to achieve convergence from 6.7338608499454035e-07 to 6.7338608499554038e-07 seconds.
Warning: Simulation tolerance relaxed to achieve convergence from 6.7338608499554038e-07 to 6.7338608499654041e-07 seconds.
Warning: Simulation tolerance relaxed to achieve convergence from 6.7338608500454042e-07 to 6.7338608500554045e-07 seconds.
Warning: Simulation tolerance relaxed to achieve convergence from 6.7338608500554045e-07 to 6.7338608500654048e-07 seconds.
Warning: Simulation tolerance relaxed to achieve convergence from 6.7338608500954046e-07 to 6.7338608501054049e-07 seconds.
Warning: Simulation tolerance relaxed to achieve convergence from 6.7338608501454049e-07 to 6.7338608501554052e-07 seconds.
Warning: Simulation tolerance relaxed to achieve convergence from 6.7338608501654055e-07 to 6.7338608501754058e-07 seconds.
Warning: Simulation tolerance relaxed to achieve convergence from 6.7338608502054056e-07 to 6.7338608502154059e-07 seconds.
Warning: Simulation tolerance relaxed to achieve convergence from 6.7338608502454057e-07 to 6.7338608502554059e-07 seconds.
Warning: Simulation tolerance relaxed to achieve convergence from 6.7338608508854058e-07 to 6.7338608508954060e-07 seconds.
Warning: Simulation tolerance relaxed to achieve convergence from 6.7338608508954060e-07 to 6.7338608509054063e-07 seconds.
Warning: Simulation tolerance relaxed to achieve convergence from 6.7338608509054063e-07 to 6.7338608509154066e-07 seconds.
Warning: Simulation tolerance relaxed to achieve convergence from 6.7338608509354061e-07 to 6.7338608509454064e-07 seconds.
Warning: Simulation tolerance relaxed to achieve convergence from 6.7338608509654059e-07 to 6.7338608509754062e-07 seconds.
Warning: Simulation tolerance relaxed to achieve convergence from 6.7338608509854065e-07 to 6.7338608509954067e-07 seconds.
Warning: Simulation tolerance relaxed to achieve convergence from 6.7338608509954067e-07 to 6.7338608510054070e-07 seconds.
Warning: Simulation tolerance relaxed to achieve convergence from 6.7338608510854072e-07 to 6.7338608510954075e-07 seconds.
Warning: Simulation tolerance relaxed to achieve convergence from 6.7338608511154080e-07 to 6.7338608511254083e-07 seconds.
Warning: Simulation tolerance relaxed to achieve convergence from 6.7338608511254083e-07 to 6.7338608511354086e-07 seconds.
Warning: Simulation tolerance relaxed to achieve convergence from 6.7338608511654084e-07 to 6.7338608511754087e-07 seconds.
Warning: Simulation tolerance relaxed to achieve convergence from 6.7338608511754087e-07 to 6.7338608511854089e-07 seconds.
Warning: Simulation tolerance relaxed to achieve convergence from 6.7338608511854089e-07 to 6.7338608511954092e-07 seconds.
Warning: Simulation tolerance relaxed to achieve convergence from 6.7338608511954092e-07 to 6.7338608512054095e-07 seconds.
Warning: Simulation tolerance relaxed to achieve convergence from 6.7338608524854097e-07 to 6.7338608524954100e-07 seconds.
Warning: Simulation tolerance relaxed to achieve convergence from 6.7338608525154095e-07 to 6.7338608525254098e-07 seconds.
Warning: Simulation tolerance relaxed to achieve convergence from 6.7338608525254098e-07 to 6.7338608525354101e-07 seconds.
Warning: Simulation tolerance relaxed to achieve convergence from 6.7338608525654098e-07 to 6.7338608525754101e-07 seconds.
Warning: Simulation tolerance relaxed to achieve convergence from 6.7338608525754101e-07 to 6.7338608525854104e-07 seconds.
Warning: Simulation tolerance relaxed to achieve convergence from 6.7338608525954107e-07 to 6.7338608526054110e-07 seconds.
Warning: Simulation tolerance relaxed to achieve convergence from 6.7338608533154109e-07 to 6.7338608533254112e-07 seconds.
Warning: Simulation tolerance relaxed to achieve convergence from 6.7338608533454118e-07 to 6.7338608533554121e-07 seconds.
Warning: Simulation tolerance relaxed to achieve convergence from 6.7338608533854118e-07 to 6.7338608533954121e-07 seconds.
Warning: Simulation tolerance relaxed to achieve convergence from 6.7338608533954121e-07 to 6.7338608534054124e-07 seconds.
Warning: Simulation tolerance relaxed to achieve convergence from 6.7338608534054124e-07 to 6.7338608534154127e-07 seconds.
Warning: Simulation tolerance relaxed to achieve convergence from 6.7338608534354122e-07 to 6.7338608534454125e-07 seconds.
Warning: Simulation tolerance relaxed to achieve convergence from 6.7338608534554128e-07 to 6.7338608534654131e-07 seconds.
Warning: Simulation tolerance relaxed to achieve convergence from 6.7338608534654131e-07 to 6.7338608534754133e-07 seconds.
Warning: Simulation tolerance relaxed to achieve convergence from 6.7338608534754133e-07 to 6.7338608534854136e-07 seconds.
Warning: Simulation tolerance relaxed to achieve convergence from 6.7338608535154134e-07 to 6.7338608535254137e-07 seconds.
Warning: Simulation tolerance relaxed to achieve convergence from 6.7338608535354140e-07 to 6.7338608535454143e-07 seconds.
Warning: Simulation tolerance relaxed to achieve convergence from 6.7338608535454143e-07 to 6.7338608535554145e-07 seconds.
Warning: Simulation tolerance relaxed to achieve convergence from 6.7338608535554145e-07 to 6.7338608535654148e-07 seconds.
Warning: Simulation tolerance relaxed to achieve convergence from 6.7338608535954146e-07 to 6.7338608536054149e-07 seconds.
Warning: Simulation tolerance relaxed to achieve convergence from 6.7338608536454150e-07 to 6.7338608536554152e-07 seconds.
Warning: Simulation tolerance relaxed to achieve convergence from 6.7338608536654155e-07 to 6.7338608536754158e-07 seconds.
Warning: Simulation tolerance relaxed to achieve convergence from 6.7338608536754158e-07 to 6.7338608536854161e-07 seconds.
Warning: Simulation tolerance relaxed to achieve convergence from 6.7338608536854161e-07 to 6.7338608536954164e-07 seconds.
Warning: Simulation tolerance relaxed to achieve convergence from 6.7338608537154159e-07 to 6.7338608537254162e-07 seconds.
Warning: Simulation tolerance relaxed to achieve convergence from 6.7338608537554170e-07 to 6.7338608537654173e-07 seconds.
Warning: Simulation tolerance relaxed to achieve convergence from 6.7338608538054174e-07 to 6.7338608538154177e-07 seconds.
Warning: Simulation tolerance relaxed to achieve convergence from 6.7338608538154177e-07 to 6.7338608538254179e-07 seconds.
Warning: Simulation tolerance relaxed to achieve convergence from 6.7338608538554177e-07 to 6.7338608538654180e-07 seconds.
Warning: Simulation tolerance relaxed to achieve convergence from 6.7338608538654180e-07 to 6.7338608538754183e-07 seconds.
Warning: Simulation tolerance relaxed to achieve convergence from 6.7338608539754179e-07 to 6.7338608539854182e-07 seconds.
Warning: Simulation tolerance relaxed to achieve convergence from 6.7338608540354186e-07 to 6.7338608540454189e-07 seconds.
Warning: Simulation tolerance relaxed to achieve convergence from 6.7338608540454189e-07 to 6.7338608540554191e-07 seconds.
Warning: Simulation tolerance relaxed to achieve convergence from 6.7338608540654194e-07 to 6.7338608540754197e-07 seconds.
Warning: Simulation tolerance relaxed to achieve convergence from 6.7338608540754197e-07 to 6.7338608540854200e-07 seconds.
Warning: Simulation tolerance relaxed to achieve convergence from 6.7338608541054195e-07 to 6.7338608541154198e-07 seconds.
Warning: Simulation tolerance relaxed to achieve convergence from 6.7338608541254201e-07 to 6.7338608541354203e-07 seconds.
Warning: Simulation tolerance relaxed to achieve convergence from 6.7338608541354203e-07 to 6.7338608541454206e-07 seconds.
Warning: Simulation tolerance relaxed to achieve convergence from 6.7338608541654201e-07 to 6.7338608541754204e-07 seconds.
Warning: Simulation tolerance relaxed to achieve convergence from 6.7338608542354200e-07 to 6.7338608542454203e-07 seconds.
Warning: Simulation tolerance relaxed to achieve convergence from 6.7338608542454203e-07 to 6.7338608542554206e-07 seconds.
Warning: Simulation tolerance relaxed to achieve convergence from 6.7338608542554206e-07 to 6.7338608542654208e-07 seconds.
Warning: Simulation tolerance relaxed to achieve convergence from 6.7338608542754211e-07 to 6.7338608542854214e-07 seconds.
Warning: Simulation tolerance relaxed to achieve convergence from 6.7338608542954217e-07 to 6.7338608543054220e-07 seconds.
Warning: Simulation tolerance relaxed to achieve convergence from 6.7338608543254215e-07 to 6.7338608543354218e-07 seconds.
Warning: Simulation tolerance relaxed to achieve convergence from 6.7338608543354218e-07 to 6.7338608543454220e-07 seconds.
Warning: Simulation tolerance relaxed to achieve convergence from 6.7338608543654216e-07 to 6.7338608543754218e-07 seconds.
Warning: Simulation tolerance relaxed to achieve convergence from 6.7338608544354214e-07 to 6.7338608544454217e-07 seconds.
Warning: Simulation tolerance relaxed to achieve convergence from 6.7338608544554220e-07 to 6.7338608544654223e-07 seconds.
Warning: Simulation tolerance relaxed to achieve convergence from 6.7338608544654223e-07 to 6.7338608544754225e-07 seconds.
Warning: Simulation tolerance relaxed to achieve convergence from 6.7338608544754225e-07 to 6.7338608544854228e-07 seconds.
Warning: Simulation tolerance relaxed to achieve convergence from 6.7338608544854228e-07 to 6.7338608544954231e-07 seconds.
Warning: Simulation tolerance relaxed to achieve convergence from 6.7338608545254229e-07 to 6.7338608545354232e-07 seconds.
Warning: Simulation tolerance relaxed to achieve convergence from 6.7338608546054230e-07 to 6.7338608546154233e-07 seconds.
Warning: Simulation tolerance relaxed to achieve convergence from 6.7338608549354239e-07 to 6.7338608549454242e-07 seconds.
Warning: Simulation tolerance relaxed to achieve convergence from 6.7338608549554245e-07 to 6.7338608549654248e-07 seconds.
Warning: Simulation tolerance relaxed to achieve convergence from 6.7338608549854243e-07 to 6.7338608549954245e-07 seconds.
Warning: Simulation tolerance relaxed to achieve convergence from 6.7338608550554241e-07 to 6.7338608550654244e-07 seconds.
Warning: Simulation tolerance relaxed to achieve convergence from 6.7338608550654244e-07 to 6.7338608550754247e-07 seconds.
Warning: Simulation tolerance relaxed to achieve convergence from 6.7338608551554248e-07 to 6.7338608551654251e-07 seconds.
Warning: Simulation tolerance relaxed to achieve convergence from 6.7338608552554255e-07 to 6.7338608552654258e-07 seconds.
Warning: Simulation tolerance relaxed to achieve convergence from 6.7338608552854253e-07 to 6.7338608552954256e-07 seconds.
Warning: Simulation tolerance relaxed to achieve convergence from 6.7338608553454260e-07 to 6.7338608553554263e-07 seconds.
Warning: Simulation tolerance relaxed to achieve convergence from 6.7338608553554263e-07 to 6.7338608553654265e-07 seconds.
Warning: Simulation tolerance relaxed to achieve convergence from 6.7338608554854268e-07 to 6.7338608554954270e-07 seconds.
Warning: Simulation tolerance relaxed to achieve convergence from 6.7338608557954270e-07 to 6.7338608558054273e-07 seconds.
Warning: Simulation tolerance relaxed to achieve convergence from 6.7338608559454271e-07 to 6.7338608559554273e-07 seconds.
Warning: Simulation tolerance relaxed to achieve convergence from 6.7338608559754268e-07 to 6.7338608559854271e-07 seconds.
Warning: Simulation tolerance relaxed to achieve convergence from 6.7338608560054266e-07 to 6.7338608560154269e-07 seconds.
Warning: Simulation tolerance relaxed to achieve convergence from 6.7338608560154269e-07 to 6.7338608560254272e-07 seconds.
Warning: Simulation tolerance relaxed to achieve convergence from 6.7338608564054274e-07 to 6.7338608564154276e-07 seconds.
Warning: Simulation tolerance relaxed to achieve convergence from 6.7338608564154276e-07 to 6.7338608564254279e-07 seconds.
Warning: Simulation tolerance relaxed to achieve convergence from 6.7338608564854275e-07 to 6.7338608564954278e-07 seconds.
Warning: Simulation tolerance relaxed to achieve convergence from 6.7338608565754279e-07 to 6.7338608565854282e-07 seconds.
Warning: Simulation tolerance relaxed to achieve convergence from 6.7338608566554281e-07 to 6.7338608566654284e-07 seconds.
Warning: Simulation tolerance relaxed to achieve convergence from 6.7338608566654284e-07 to 6.7338608566754286e-07 seconds.
Warning: Simulation tolerance relaxed to achieve convergence from 6.7338608567154287e-07 to 6.7338608567254290e-07 seconds.
Warning: Simulation tolerance relaxed to achieve convergence from 6.7338608567454296e-07 to 6.7338608567554298e-07 seconds.
Warning: Simulation tolerance relaxed to achieve convergence from 6.7338608567554298e-07 to 6.7338608567654301e-07 seconds.
Warning: Simulation tolerance relaxed to achieve convergence from 6.7338608567954299e-07 to 6.7338608568054302e-07 seconds.
Warning: Simulation tolerance relaxed to achieve convergence from 6.7338608568454303e-07 to 6.7338608568554305e-07 seconds.
Warning: Simulation tolerance relaxed to achieve convergence from 6.7338608568954306e-07 to 6.7338608569054309e-07 seconds.
Warning: Simulation tolerance relaxed to achieve convergence from 6.7338608569054309e-07 to 6.7338608569154312e-07 seconds.
Warning: Simulation tolerance relaxed to achieve convergence from 6.7338608569154312e-07 to 6.7338608569254315e-07 seconds.
Warning: Simulation tolerance relaxed to achieve convergence from 6.7338608569354318e-07 to 6.7338608569454320e-07 seconds.
Warning: Simulation tolerance relaxed to achieve convergence from 6.7338608570154319e-07 to 6.7338608570254322e-07 seconds.
Warning: Simulation tolerance relaxed to achieve convergence from 6.7338608571254318e-07 to 6.7338608571354321e-07 seconds.
Warning: Simulation tolerance relaxed to achieve convergence from 6.7338608571554316e-07 to 6.7338608571654319e-07 seconds.
Warning: Simulation tolerance relaxed to achieve convergence from 6.7338608575054320e-07 to 6.7338608575154323e-07 seconds.
Warning: Simulation tolerance relaxed to achieve convergence from 6.7338608575154323e-07 to 6.7338608575254325e-07 seconds.
Warning: Simulation tolerance relaxed to achieve convergence from 6.7338608575554323e-07 to 6.7338608575654326e-07 seconds.
Warning: Simulation tolerance relaxed to achieve convergence from 6.7338608576254322e-07 to 6.7338608576354325e-07 seconds.
Warning: Simulation tolerance relaxed to achieve convergence from 6.7338608576354325e-07 to 6.7338608576454328e-07 seconds.
Warning: Simulation tolerance relaxed to achieve convergence from 6.7338608576454328e-07 to 6.7338608576554330e-07 seconds.
Warning: Simulation tolerance relaxed to achieve convergence from 6.7338608576754326e-07 to 6.7338608576854328e-07 seconds.
Warning: Simulation tolerance relaxed to achieve convergence from 6.7338608576854328e-07 to 6.7338608576954331e-07 seconds.
Warning: Simulation tolerance relaxed to achieve convergence from 6.7338608577654330e-07 to 6.7338608577754333e-07 seconds.
Warning: Simulation tolerance relaxed to achieve convergence from 6.7338608578054341e-07 to 6.7338608578154344e-07 seconds.
Warning: Simulation tolerance relaxed to achieve convergence from 6.7338608578754340e-07 to 6.7338608578854343e-07 seconds.
Warning: Simulation tolerance relaxed to achieve convergence from 6.7338608579054338e-07 to 6.7338608579154340e-07 seconds.
Warning: Simulation tolerance relaxed to achieve convergence from 6.7338608579354346e-07 to 6.7338608579454349e-07 seconds.
Warning: Simulation tolerance relaxed to achieve convergence from 6.7338608579854350e-07 to 6.7338608579954353e-07 seconds.
Warning: Simulation tolerance relaxed to achieve convergence from 6.7338608580154348e-07 to 6.7338608580254350e-07 seconds.
Warning: Simulation tolerance relaxed to achieve convergence from 6.7338608581154344e-07 to 6.7338608581254347e-07 seconds.
Warning: Simulation tolerance relaxed to achieve convergence from 6.7338608581254347e-07 to 6.7338608581354350e-07 seconds.
Warning: Simulation tolerance relaxed to achieve convergence from 6.7338608582354346e-07 to 6.7338608582454349e-07 seconds.
Warning: Simulation tolerance relaxed to achieve convergence from 6.7338608582454349e-07 to 6.7338608582554352e-07 seconds.
Warning: Simulation tolerance relaxed to achieve convergence from 6.7338608582954353e-07 to 6.7338608583054355e-07 seconds.
Warning: Simulation tolerance relaxed to achieve convergence from 6.7338608583254351e-07 to 6.7338608583354353e-07 seconds.
Warning: Simulation tolerance relaxed to achieve convergence from 6.7338608583854357e-07 to 6.7338608583954360e-07 seconds.
Warning: Simulation tolerance relaxed to achieve convergence from 6.7338608583954360e-07 to 6.7338608584054363e-07 seconds.
Warning: Simulation tolerance relaxed to achieve convergence from 6.7338608584054363e-07 to 6.7338608584154365e-07 seconds.
Warning: Simulation tolerance relaxed to achieve convergence from 6.7338608584654369e-07 to 6.7338608584754372e-07 seconds.
Warning: Simulation tolerance relaxed to achieve convergence from 6.7338608584954367e-07 to 6.7338608585054370e-07 seconds.
Warning: Simulation tolerance relaxed to achieve convergence from 6.7338608585654365e-07 to 6.7338608585754368e-07 seconds.
Warning: Simulation tolerance relaxed to achieve convergence from 6.7338608585754368e-07 to 6.7338608585854371e-07 seconds.
Warning: Simulation tolerance relaxed to achieve convergence from 6.7338608586054366e-07 to 6.7338608586154369e-07 seconds.
Warning: Simulation tolerance relaxed to achieve convergence from 6.7338608586154369e-07 to 6.7338608586254372e-07 seconds.
Warning: Simulation tolerance relaxed to achieve convergence from 6.7338608586354375e-07 to 6.7338608586454377e-07 seconds.
Warning: Simulation tolerance relaxed to achieve convergence from 6.7338608586754375e-07 to 6.7338608586854378e-07 seconds.
Warning: Simulation tolerance relaxed to achieve convergence from 6.7338608586954381e-07 to 6.7338608587054384e-07 seconds.
Warning: Simulation tolerance relaxed to achieve convergence from 6.7338608587254379e-07 to 6.7338608587354382e-07 seconds.
Warning: Simulation tolerance relaxed to achieve convergence from 6.7338608587754382e-07 to 6.7338608587854385e-07 seconds.
Warning: Simulation tolerance relaxed to achieve convergence from 6.7338608589154380e-07 to 6.7338608589254383e-07 seconds.
Warning: Simulation tolerance relaxed to achieve convergence from 6.7338608595554381e-07 to 6.7338608595654383e-07 seconds.
Warning: Simulation tolerance relaxed to achieve convergence from 6.7338608595654383e-07 to 6.7338608595754386e-07 seconds.
Warning: Simulation tolerance relaxed to achieve convergence from 6.7338608595954381e-07 to 6.7338608596054384e-07 seconds.
Warning: Simulation tolerance relaxed to achieve convergence from 6.7338608596054384e-07 to 6.7338608596154387e-07 seconds.
Warning: Simulation tolerance relaxed to achieve convergence from 6.7338608596354382e-07 to 6.7338608596454385e-07 seconds.
Warning: Simulation tolerance relaxed to achieve convergence from 6.7338608596454385e-07 to 6.7338608596554388e-07 seconds.
Warning: Simulation tolerance relaxed to achieve convergence from 6.7338608596554388e-07 to 6.7338608596654391e-07 seconds.
Warning: Simulation tolerance relaxed to achieve convergence from 6.7338608596654391e-07 to 6.7338608596754393e-07 seconds.
Warning: Simulation tolerance relaxed to achieve convergence from 6.7338608597154394e-07 to 6.7338608597254397e-07 seconds.
Warning: Simulation tolerance relaxed to achieve convergence from 6.7338608598654394e-07 to 6.7338608598754397e-07 seconds.
Warning: Simulation tolerance relaxed to achieve convergence from 6.7338608598754397e-07 to 6.7338608598854400e-07 seconds.
Warning: Simulation tolerance relaxed to achieve convergence from 6.7338608599054395e-07 to 6.7338608599154398e-07 seconds.
Warning: Simulation tolerance relaxed to achieve convergence from 6.7338608599154398e-07 to 6.7338608599254401e-07 seconds.
Warning: Simulation tolerance relaxed to achieve convergence from 6.7338608599254401e-07 to 6.7338608599354403e-07 seconds.
Warning: Simulation tolerance relaxed to achieve convergence from 6.7338608599354403e-07 to 6.7338608599454406e-07 seconds.
Warning: Simulation tolerance relaxed to achieve convergence from 6.7338608600854403e-07 to 6.7338608600954406e-07 seconds.
Warning: Simulation tolerance relaxed to achieve convergence from 6.7338608604554413e-07 to 6.7338608604654416e-07 seconds.
Warning: Simulation tolerance relaxed to achieve convergence from 6.7338608604654416e-07 to 6.7338608604754418e-07 seconds.
Warning: Simulation tolerance relaxed to achieve convergence from 6.7338608604954424e-07 to 6.7338608605054427e-07 seconds.
Warning: Simulation tolerance relaxed to achieve convergence from 6.7338608605054427e-07 to 6.7338608605154430e-07 seconds.
Warning: Simulation tolerance relaxed to achieve convergence from 6.7338608606854425e-07 to 6.7338608606954428e-07 seconds.
Warning: Simulation tolerance relaxed to achieve convergence from 6.7338608606954428e-07 to 6.7338608607054430e-07 seconds.
Warning: Simulation tolerance relaxed to achieve convergence from 6.7338608607354428e-07 to 6.7338608607454431e-07 seconds.
Warning: Simulation tolerance relaxed to achieve convergence from 6.7338608608054427e-07 to 6.7338608608154430e-07 seconds.
Warning: Simulation tolerance relaxed to achieve convergence from 6.7338608608354425e-07 to 6.7338608608454428e-07 seconds.
Warning: Simulation tolerance relaxed to achieve convergence from 6.7338608609054424e-07 to 6.7338608609154426e-07 seconds.
Warning: Simulation tolerance relaxed to achieve convergence from 6.7338608609754422e-07 to 6.7338608609854425e-07 seconds.
Warning: Simulation tolerance relaxed to achieve convergence from 6.7338608609854425e-07 to 6.7338608609954428e-07 seconds.
Warning: Simulation tolerance relaxed to achieve convergence from 6.7338608609954428e-07 to 6.7338608610054431e-07 seconds.
Warning: Simulation tolerance relaxed to achieve convergence from 6.7338608610254436e-07 to 6.7338608610354439e-07 seconds.
Warning: Simulation tolerance relaxed to achieve convergence from 6.7338608611054438e-07 to 6.7338608611154441e-07 seconds.
Warning: Simulation tolerance relaxed to achieve convergence from 6.7338608611854439e-07 to 6.7338608611954442e-07 seconds.
Warning: Simulation tolerance relaxed to achieve convergence from 6.7338608611954442e-07 to 6.7338608612054445e-07 seconds.
Warning: Simulation tolerance relaxed to achieve convergence from 6.7338608612254440e-07 to 6.7338608612354443e-07 seconds.
Warning: Simulation tolerance relaxed to achieve convergence from 6.7338608612354443e-07 to 6.7338608612454446e-07 seconds.
Warning: Simulation tolerance relaxed to achieve convergence from 6.7338608614454439e-07 to 6.7338608614554441e-07 seconds.
Warning: Simulation tolerance relaxed to achieve convergence from 6.7338608614554441e-07 to 6.7338608614654444e-07 seconds.
Warning: Simulation tolerance relaxed to achieve convergence from 6.7338608614754447e-07 to 6.7338608614854450e-07 seconds.
Warning: Simulation tolerance relaxed to achieve convergence from 6.7338608614854450e-07 to 6.7338608614954453e-07 seconds.
Warning: Simulation tolerance relaxed to achieve convergence from 6.7338608615354453e-07 to 6.7338608615454456e-07 seconds.
Warning: Simulation tolerance relaxed to achieve convergence from 6.7338608615554459e-07 to 6.7338608615654462e-07 seconds.
Warning: Simulation tolerance relaxed to achieve convergence from 6.7338608615654462e-07 to 6.7338608615754465e-07 seconds.
Warning: Simulation tolerance relaxed to achieve convergence from 6.7338608615754465e-07 to 6.7338608615854468e-07 seconds.
Warning: Simulation tolerance relaxed to achieve convergence from 6.7338608615854468e-07 to 6.7338608615954470e-07 seconds.
Warning: Simulation tolerance relaxed to achieve convergence from 6.7338608616554466e-07 to 6.7338608616654469e-07 seconds.
Warning: Simulation tolerance relaxed to achieve convergence from 6.7338608616654469e-07 to 6.7338608616754472e-07 seconds.
Warning: Simulation tolerance relaxed to achieve convergence from 6.7338608616854475e-07 to 6.7338608616954477e-07 seconds.
Warning: Simulation tolerance relaxed to achieve convergence from 6.7338608617654476e-07 to 6.7338608617754479e-07 seconds.
Warning: Simulation tolerance relaxed to achieve convergence from 6.7338608618254482e-07 to 6.7338608618354485e-07 seconds.
Warning: Simulation tolerance relaxed to achieve convergence from 6.7338608618954481e-07 to 6.7338608619054484e-07 seconds.
Warning: Simulation tolerance relaxed to achieve convergence from 6.7338608619154487e-07 to 6.7338608619254490e-07 seconds.
Warning: Simulation tolerance relaxed to achieve convergence from 6.7338608619354492e-07 to 6.7338608619454495e-07 seconds.
Warning: Simulation tolerance relaxed to achieve convergence from 6.7338608619554498e-07 to 6.7338608619654501e-07 seconds.
Warning: Simulation tolerance relaxed to achieve convergence from 6.7338608619854496e-07 to 6.7338608619954499e-07 seconds.
Warning: Simulation tolerance relaxed to achieve convergence from 6.7338608620154494e-07 to 6.7338608620254497e-07 seconds.
Warning: Simulation tolerance relaxed to achieve convergence from 6.7338608620454492e-07 to 6.7338608620554495e-07 seconds.
Warning: Simulation tolerance relaxed to achieve convergence from 6.7338608620554495e-07 to 6.7338608620654497e-07 seconds.
Warning: Simulation tolerance relaxed to achieve convergence from 6.7338608621154501e-07 to 6.7338608621254504e-07 seconds.
Warning: Simulation tolerance relaxed to achieve convergence from 6.7338608622554509e-07 to 6.7338608622654512e-07 seconds.
Warning: Simulation tolerance relaxed to achieve convergence from 6.7338608622954509e-07 to 6.7338608623054512e-07 seconds.
Warning: Simulation tolerance relaxed to achieve convergence from 6.7338608623254518e-07 to 6.7338608623354521e-07 seconds.
Warning: Simulation tolerance relaxed to achieve convergence from 6.7338608623554516e-07 to 6.7338608623654519e-07 seconds.
Warning: Simulation tolerance relaxed to achieve convergence from 6.7338608623754521e-07 to 6.7338608623854524e-07 seconds.
Warning: Simulation tolerance relaxed to achieve convergence from 6.7338608624054519e-07 to 6.7338608624154522e-07 seconds.
Warning: Simulation tolerance relaxed to achieve convergence from 6.7338608624154522e-07 to 6.7338608624254525e-07 seconds.
Warning: Simulation tolerance relaxed to achieve convergence from 6.7338608624254525e-07 to 6.7338608624354528e-07 seconds.
Warning: Simulation tolerance relaxed to achieve convergence from 6.7338608624654526e-07 to 6.7338608624754529e-07 seconds.
Warning: Simulation tolerance relaxed to achieve convergence from 6.7338608624754529e-07 to 6.7338608624854531e-07 seconds.
Warning: Simulation tolerance relaxed to achieve convergence from 6.7338608626754522e-07 to 6.7338608626854524e-07 seconds.
Warning: Simulation tolerance relaxed to achieve convergence from 6.7338608627054530e-07 to 6.7338608627154533e-07 seconds.
Warning: Simulation tolerance relaxed to achieve convergence from 6.7338608627754529e-07 to 6.7338608627854532e-07 seconds.
Warning: Simulation tolerance relaxed to achieve convergence from 6.7338608627854532e-07 to 6.7338608627954534e-07 seconds.
Warning: Simulation tolerance relaxed to achieve convergence from 6.7338608628054537e-07 to 6.7338608628154540e-07 seconds.
Warning: Simulation tolerance relaxed to achieve convergence from 6.7338608628154540e-07 to 6.7338608628254543e-07 seconds.
Warning: Simulation tolerance relaxed to achieve convergence from 6.7338608628354546e-07 to 6.7338608628454549e-07 seconds.
Warning: Simulation tolerance relaxed to achieve convergence from 6.7338608628454549e-07 to 6.7338608628554551e-07 seconds.
Warning: Simulation tolerance relaxed to achieve convergence from 6.7338608628554551e-07 to 6.7338608628654554e-07 seconds.
Warning: Simulation tolerance relaxed to achieve convergence from 6.7338608628654554e-07 to 6.7338608628754557e-07 seconds.
Warning: Simulation tolerance relaxed to achieve convergence from 6.7338608628754557e-07 to 6.7338608628854560e-07 seconds.
Warning: Simulation tolerance relaxed to achieve convergence from 6.7338608628854560e-07 to 6.7338608628954563e-07 seconds.
Warning: Simulation tolerance relaxed to achieve convergence from 6.7338608629154558e-07 to 6.7338608629254561e-07 seconds.
Warning: Simulation tolerance relaxed to achieve convergence from 6.7338608629854556e-07 to 6.7338608629954559e-07 seconds.
Warning: Simulation tolerance relaxed to achieve convergence from 6.7338608629954559e-07 to 6.7338608630054562e-07 seconds.
Warning: Simulation tolerance relaxed to achieve convergence from 6.7338608630354560e-07 to 6.7338608630454563e-07 seconds.
Warning: Simulation tolerance relaxed to achieve convergence from 6.7338608630454563e-07 to 6.7338608630554566e-07 seconds.
Warning: Simulation tolerance relaxed to achieve convergence from 6.7338608630554566e-07 to 6.7338608630654568e-07 seconds.
Warning: Simulation tolerance relaxed to achieve convergence from 6.7338608630954566e-07 to 6.7338608631054569e-07 seconds.
Warning: Simulation tolerance relaxed to achieve convergence from 6.7338608631054569e-07 to 6.7338608631154572e-07 seconds.
Warning: Simulation tolerance relaxed to achieve convergence from 6.7338608631354567e-07 to 6.7338608631454570e-07 seconds.
Warning: Simulation tolerance relaxed to achieve convergence from 6.7338608631454570e-07 to 6.7338608631554573e-07 seconds.
Warning: Simulation tolerance relaxed to achieve convergence from 6.7338608631754568e-07 to 6.7338608631854571e-07 seconds.
Warning: Simulation tolerance relaxed to achieve convergence from 6.7338608631854571e-07 to 6.7338608631954573e-07 seconds.
Warning: Simulation tolerance relaxed to achieve convergence from 6.7338608631954573e-07 to 6.7338608632054576e-07 seconds.
Warning: Simulation tolerance relaxed to achieve convergence from 6.7338608632054576e-07 to 6.7338608632154579e-07 seconds.
Warning: Simulation tolerance relaxed to achieve convergence from 6.7338608632154579e-07 to 6.7338608632254582e-07 seconds.
Warning: Simulation tolerance relaxed to achieve convergence from 6.7338608632654583e-07 to 6.7338608632754585e-07 seconds.
Warning: Simulation tolerance relaxed to achieve convergence from 6.7338608632754585e-07 to 6.7338608632854588e-07 seconds.
Warning: Simulation tolerance relaxed to achieve convergence from 6.7338608633054583e-07 to 6.7338608633154586e-07 seconds.
Warning: Simulation tolerance relaxed to achieve convergence from 6.7338608633154586e-07 to 6.7338608633254589e-07 seconds.
Warning: Simulation tolerance relaxed to achieve convergence from 6.7338608633754592e-07 to 6.7338608633854595e-07 seconds.
Warning: Simulation tolerance relaxed to achieve convergence from 6.7338608633854595e-07 to 6.7338608633954598e-07 seconds.
Warning: Simulation tolerance relaxed to achieve convergence from 6.7338608634654597e-07 to 6.7338608634754600e-07 seconds.
Warning: Simulation tolerance relaxed to achieve convergence from 6.7338608635054597e-07 to 6.7338608635154600e-07 seconds.
Warning: Simulation tolerance relaxed to achieve convergence from 6.7338608635454598e-07 to 6.7338608635554601e-07 seconds.
Warning: Simulation tolerance relaxed to achieve convergence from 6.7338608635754607e-07 to 6.7338608635854609e-07 seconds.
Warning: Simulation tolerance relaxed to achieve convergence from 6.7338608635854609e-07 to 6.7338608635954612e-07 seconds.
Warning: Simulation tolerance relaxed to achieve convergence from 6.7338608636254610e-07 to 6.7338608636354613e-07 seconds.
Warning: Simulation tolerance relaxed to achieve convergence from 6.7338608636454616e-07 to 6.7338608636554619e-07 seconds.
Warning: Simulation tolerance relaxed to achieve convergence from 6.7338608636754614e-07 to 6.7338608636854617e-07 seconds.
Warning: Simulation tolerance relaxed to achieve convergence from 6.7338608637154625e-07 to 6.7338608637254628e-07 seconds.
Warning: Simulation tolerance relaxed to achieve convergence from 6.7338608637554626e-07 to 6.7338608637654629e-07 seconds.
Warning: Simulation tolerance relaxed to achieve convergence from 6.7338608637954637e-07 to 6.7338608638054640e-07 seconds.
Warning: Simulation tolerance relaxed to achieve convergence from 6.7338608639554640e-07 to 6.7338608639654643e-07 seconds.
Warning: Simulation tolerance relaxed to achieve convergence from 6.7338608639654643e-07 to 6.7338608639754646e-07 seconds.
Warning: Simulation tolerance relaxed to achieve convergence from 6.7338608639954641e-07 to 6.7338608640054644e-07 seconds.
Warning: Simulation tolerance relaxed to achieve convergence from 6.7338608640654639e-07 to 6.7338608640754642e-07 seconds.
Warning: Simulation tolerance relaxed to achieve convergence from 6.7338608642554640e-07 to 6.7338608642654643e-07 seconds.
Warning: Simulation tolerance relaxed to achieve convergence from 6.7338608642654643e-07 to 6.7338608642754646e-07 seconds.
Warning: Simulation tolerance relaxed to achieve convergence from 6.7338608642754646e-07 to 6.7338608642854649e-07 seconds.
Warning: Simulation tolerance relaxed to achieve convergence from 6.7338608643054654e-07 to 6.7338608643154657e-07 seconds.
Warning: Simulation tolerance relaxed to achieve convergence from 6.7338608643154657e-07 to 6.7338608643254660e-07 seconds.
Warning: Simulation tolerance relaxed to achieve convergence from 6.7338608643454666e-07 to 6.7338608643554668e-07 seconds.
Warning: Simulation tolerance relaxed to achieve convergence from 6.7338608643554668e-07 to 6.7338608643654671e-07 seconds.
Warning: Simulation tolerance relaxed to achieve convergence from 6.7338608644054672e-07 to 6.7338608644154675e-07 seconds.
Warning: Simulation tolerance relaxed to achieve convergence from 6.7338608644154675e-07 to 6.7338608644254678e-07 seconds.
Warning: Simulation tolerance relaxed to achieve convergence from 6.7338608644354680e-07 to 6.7338608644454683e-07 seconds.
Warning: Simulation tolerance relaxed to achieve convergence from 6.7338608644454683e-07 to 6.7338608644554686e-07 seconds.
Warning: Simulation tolerance relaxed to achieve convergence from 6.7338608644554686e-07 to 6.7338608644654689e-07 seconds.
Warning: Simulation tolerance relaxed to achieve convergence from 6.7338608644654689e-07 to 6.7338608644754692e-07 seconds.
Warning: Simulation tolerance relaxed to achieve convergence from 6.7338608644754692e-07 to 6.7338608644854695e-07 seconds.
Warning: Simulation tolerance relaxed to achieve convergence from 6.7338608644854695e-07 to 6.7338608644954697e-07 seconds.
Warning: Simulation tolerance relaxed to achieve convergence from 6.7338608645054700e-07 to 6.7338608645154703e-07 seconds.
Warning: Simulation tolerance relaxed to achieve convergence from 6.7338608645154703e-07 to 6.7338608645254706e-07 seconds.
Warning: Simulation tolerance relaxed to achieve convergence from 6.7338608646254713e-07 to 6.7338608646354716e-07 seconds.
Warning: Simulation tolerance relaxed to achieve convergence from 6.7338608646354716e-07 to 6.7338608646454719e-07 seconds.
Warning: Simulation tolerance relaxed to achieve convergence from 6.7338608646454719e-07 to 6.7338608646554721e-07 seconds.
Warning: Simulation tolerance relaxed to achieve convergence from 6.7338608646854719e-07 to 6.7338608646954722e-07 seconds.
Warning: Simulation tolerance relaxed to achieve convergence from 6.7338608648354719e-07 to 6.7338608648454722e-07 seconds.
Warning: Simulation tolerance relaxed to achieve convergence from 6.7338608648454722e-07 to 6.7338608648554725e-07 seconds.
Warning: Simulation tolerance relaxed to achieve convergence from 6.7338608648654728e-07 to 6.7338608648754731e-07 seconds.
Warning: Simulation tolerance relaxed to achieve convergence from 6.7338608648754731e-07 to 6.7338608648854734e-07 seconds.
Warning: Simulation tolerance relaxed to achieve convergence from 6.7338608648854734e-07 to 6.7338608648954736e-07 seconds.
Warning: Simulation tolerance relaxed to achieve convergence from 6.7338608649454740e-07 to 6.7338608649554743e-07 seconds.
Warning: Simulation tolerance relaxed to achieve convergence from 6.7338608650154739e-07 to 6.7338608650254741e-07 seconds.
Warning: Simulation tolerance relaxed to achieve convergence from 6.7338608650254741e-07 to 6.7338608650354744e-07 seconds.
Warning: Simulation tolerance relaxed to achieve convergence from 6.7338608651754741e-07 to 6.7338608651854744e-07 seconds.
Warning: Simulation tolerance relaxed to achieve convergence from 6.7338608652054739e-07 to 6.7338608652154742e-07 seconds.
Warning: Simulation tolerance relaxed to achieve convergence from 6.7338608652154742e-07 to 6.7338608652254745e-07 seconds.
Warning: Simulation tolerance relaxed to achieve convergence from 6.7338608652254745e-07 to 6.7338608652354748e-07 seconds.
Warning: Simulation tolerance relaxed to achieve convergence from 6.7338608652354748e-07 to 6.7338608652454751e-07 seconds.
Warning: Simulation tolerance relaxed to achieve convergence from 6.7338608652454751e-07 to 6.7338608652554753e-07 seconds.
Warning: Simulation tolerance relaxed to achieve convergence from 6.7338608652754749e-07 to 6.7338608652854751e-07 seconds.
[...]
Warning: Simulation tolerance relaxed to achieve convergence from 6.7338611167961731e-07 to 6.7338611168061733e-07 seconds.
Warning: Simulation tolerance relaxed to achieve convergence from 6.7338611168561737e-07 to 6.7338611168661740e-07 seconds.
Warning: Simulation tolerance relaxed to achieve convergence from 6.7338611168761743e-07 to 6.7338611168861746e-07 seconds.
Warning: Simulation tolerance relaxed to achieve convergence from 6.7338611169061741e-07 to 6.7338611169161743e-07 seconds.
Warning: Simulation tolerance relaxed to achieve convergence from 6.7338611169361738e-07 to 6.7338611169461741e-07 seconds.
Warning: Simulation tolerance relaxed to achieve convergence from 6.7338611169761739e-07 to 6.7338611169861742e-07 seconds.
Warning: Simulation tolerance relaxed to achieve convergence from 6.7338611170461738e-07 to 6.7338611170561741e-07 seconds.
Warning: Simulation tolerance relaxed to achieve convergence from 6.7338611170861739e-07 to 6.7338611170961741e-07 seconds.
Warning: Simulation tolerance relaxed to achieve convergence from 6.7338611171361742e-07 to 6.7338611171461745e-07 seconds.
Warning: Simulation tolerance relaxed to achieve convergence from 6.7338611172161744e-07 to 6.7338611172261746e-07 seconds.
Warning: Simulation tolerance relaxed to achieve convergence from 6.7338611172261746e-07 to 6.7338611172361749e-07 seconds.
Warning: Simulation tolerance relaxed to achieve convergence from 6.7338611179861760e-07 to 6.7338611179961763e-07 seconds.
Warning: Simulation tolerance relaxed to achieve convergence from 6.7338611180761764e-07 to 6.7338611180861767e-07 seconds.
Warning: Simulation tolerance relaxed to achieve convergence from 6.7338611180961770e-07 to 6.7338611181061773e-07 seconds.
Warning: Simulation tolerance relaxed to achieve convergence from 6.7338611181261768e-07 to 6.7338611181361771e-07 seconds.
Warning: Simulation tolerance relaxed to achieve convergence from 6.7338611181561766e-07 to 6.7338611181661769e-07 seconds.
Warning: Simulation tolerance relaxed to achieve convergence from 6.7338611182061769e-07 to 6.7338611182161772e-07 seconds.
Warning: Simulation tolerance relaxed to achieve convergence from 6.7338611185661776e-07 to 6.7338611185761779e-07 seconds.
Warning: Simulation tolerance relaxed to achieve convergence from 6.7338611187161776e-07 to 6.7338611187261779e-07 seconds.
Warning: Simulation tolerance relaxed to achieve convergence from 6.7338611187361782e-07 to 6.7338611187461784e-07 seconds.
Warning: Simulation tolerance relaxed to achieve convergence from 6.7338611187561787e-07 to 6.7338611187661790e-07 seconds.
Warning: Simulation tolerance relaxed to achieve convergence from 6.7338611187661790e-07 to 6.7338611187761793e-07 seconds.
Warning: Simulation tolerance relaxed to achieve convergence from 6.7338611187761793e-07 to 6.7338611187861796e-07 seconds.
Warning: Simulation tolerance relaxed to achieve convergence from 6.7338611187961798e-07 to 6.7338611188061801e-07 seconds.
Warning: Simulation tolerance relaxed to achieve convergence from 6.7338611188061801e-07 to 6.7338611188161804e-07 seconds.
Warning: Simulation tolerance relaxed to achieve convergence from 6.7338611188861803e-07 to 6.7338611188961806e-07 seconds.
Warning: Simulation tolerance relaxed to achieve convergence from 5.5352259150391245e-04 to 5.5352259150391343e-04 seconds.
Warning: Simulation tolerance relaxed to achieve convergence from 5.5352259150391635e-04 to 5.5352259150391733e-04 seconds.
Warning: Simulation tolerance relaxed to achieve convergence from 5.5352259150393305e-04 to 5.5352259150393403e-04 seconds.
Warning: Simulation tolerance relaxed to achieve convergence from 5.5352259150395094e-04 to 5.5352259150395192e-04 seconds.
Warning: Simulation tolerance relaxed to achieve convergence from 5.5352259150395192e-04 to 5.5352259150395289e-04 seconds.
Warning: Simulation tolerance relaxed to achieve convergence from 5.5352259150395777e-04 to 5.5352259150395875e-04 seconds.
Warning: Simulation tolerance relaxed to achieve convergence from 5.5352259150397371e-04 to 5.5352259150397468e-04 seconds.
Warning: Simulation tolerance relaxed to achieve convergence from 5.5352259150398065e-04 to 5.5352259150398162e-04 seconds.
Warning: Simulation tolerance relaxed to achieve convergence from 5.5352259150398162e-04 to 5.5352259150398260e-04 seconds.
Warning: Simulation tolerance relaxed to achieve convergence from 5.5352259150404234e-04 to 5.5352259150404331e-04 seconds.
Warning: Simulation tolerance relaxed to achieve convergence from 5.5352259150407009e-04 to 5.5352259150407107e-04 seconds.
Warning: Simulation tolerance relaxed to achieve convergence from 1.0643922813279860e-03 to 1.0643922813279960e-03 seconds.
Warning: Simulation tolerance relaxed to achieve convergence from 1.0643922813284357e-03 to 1.0643922813284457e-03 seconds.
Warning: Simulation tolerance relaxed to achieve convergence from 1.0643922813284756e-03 to 1.0643922813284856e-03 seconds.
Warning: Simulation tolerance relaxed to achieve convergence from 1.0643922813285953e-03 to 1.0643922813286053e-03 seconds.
Warning: Simulation tolerance relaxed to achieve convergence from 1.0643922813286552e-03 to 1.0643922813286652e-03 seconds.
Warning: Simulation tolerance relaxed to achieve convergence from 1.0643922813287051e-03 to 1.0643922813287150e-03 seconds.
Warning: Simulation tolerance relaxed to achieve convergence from 1.0643922813288749e-03 to 1.0643922813288848e-03 seconds.
Warning: Simulation tolerance relaxed to achieve convergence from 1.0643922813290945e-03 to 1.0643922813291045e-03 seconds.
Warning: Simulation tolerance relaxed to achieve convergence from 1.0643922813292142e-03 to 1.0643922813292242e-03 seconds.
Warning: Simulation tolerance relaxed to achieve convergence from 1.0643922813292242e-03 to 1.0643922813292342e-03 seconds.
Warning: Simulation tolerance relaxed to achieve convergence from 1.0643922813301041e-03 to 1.0643922813301141e-03 seconds.
Warning: Simulation tolerance relaxed to achieve convergence from 1.0643922813304140e-03 to 1.0643922813304240e-03 seconds.
Warning: Simulation tolerance relaxed to achieve convergence from 1.0714279819994295e-03 to 1.0714279819994395e-03 seconds.
Warning: Simulation tolerance relaxed to achieve convergence from 1.0714279819997792e-03 to 1.0714279819997892e-03 seconds.
Warning: Simulation tolerance relaxed to achieve convergence from 1.0714279820001186e-03 to 1.0714279820001286e-03 seconds.
Warning: Simulation tolerance relaxed to achieve convergence from 1.2004471142178974e-03 to 1.2004471142179074e-03 seconds.
Warning: Simulation tolerance relaxed to achieve convergence from 1.2004471142181969e-03 to 1.2004471142182068e-03 seconds.
Warning: Simulation tolerance relaxed to achieve convergence from 1.2004471142185067e-03 to 1.2004471142185167e-03 seconds.
Warning: Simulation tolerance relaxed to achieve convergence from 1.2004471142186563e-03 to 1.2004471142186663e-03 seconds.
Warning: Simulation tolerance relaxed to achieve convergence from 1.2004471142187361e-03 to 1.2004471142187461e-03 seconds.
Warning: Simulation tolerance relaxed to achieve convergence from 1.2004471142189059e-03 to 1.2004471142189159e-03 seconds.
Warning: Simulation tolerance relaxed to achieve convergence from 1.2004471142189757e-03 to 1.2004471142189857e-03 seconds.
Warning: Simulation tolerance relaxed to achieve convergence from 1.2004471142189857e-03 to 1.2004471142189957e-03 seconds.
Warning: Simulation tolerance relaxed to achieve convergence from 1.2004471142190156e-03 to 1.2004471142190256e-03 seconds.
Warning: Simulation tolerance relaxed to achieve convergence from 1.2004471142190356e-03 to 1.2004471142190456e-03 seconds.
Warning: Simulation tolerance relaxed to achieve convergence from 1.2004471142191852e-03 to 1.2004471142191952e-03 seconds.
Warning: Simulation tolerance relaxed to achieve convergence from 1.2004471142191952e-03 to 1.2004471142192052e-03 seconds.
Warning: Simulation tolerance relaxed to achieve convergence from 1.2004471142192052e-03 to 1.2004471142192151e-03 seconds.
Warning: Simulation tolerance relaxed to achieve convergence from 1.2004471142193249e-03 to 1.2004471142193348e-03 seconds.
Warning: Simulation tolerance relaxed to achieve convergence from 1.2004471142194944e-03 to 1.2004471142195044e-03 seconds.
Warning: Simulation tolerance relaxed to achieve convergence from 1.2004471142199340e-03 to 1.2004471142199439e-03 seconds.
Warning: Simulation tolerance relaxed to achieve convergence from 1.2533421453618564e-03 to 1.2533421453618664e-03 seconds.
Warning: Simulation tolerance relaxed to achieve convergence from 1.2533421453627253e-03 to 1.2533421453627353e-03 seconds.
Warning: Simulation tolerance relaxed to achieve convergence from 1.2533421453627353e-03 to 1.2533421453627452e-03 seconds.
Warning: Simulation tolerance relaxed to achieve convergence from 1.2533421453628151e-03 to 1.2533421453628250e-03 seconds.
Warning: Simulation tolerance relaxed to achieve convergence from 1.2533421453628649e-03 to 1.2533421453628749e-03 seconds.
Warning: Simulation tolerance relaxed to achieve convergence from 1.7645394961738699e-03 to 1.7645394961738798e-03 seconds.
Warning: Simulation tolerance relaxed to achieve convergence from 1.7645394961739497e-03 to 1.7645394961739596e-03 seconds.
Warning: Simulation tolerance relaxed to achieve convergence from 1.8245326203036429e-03 to 1.8245326203036529e-03 seconds.
Warning: Simulation tolerance relaxed to achieve convergence from 1.8245326203036529e-03 to 1.8245326203036628e-03 seconds.
Warning: Simulation tolerance relaxed to achieve convergence from 1.8245326203040326e-03 to 1.8245326203040425e-03 seconds.
Warning: Simulation tolerance relaxed to achieve convergence from 1.9446128792692367e-03 to 1.9446128792692467e-03 seconds.
Warning: Simulation tolerance relaxed to achieve convergence from 2.3282683502203901e-03 to 2.3282683502204001e-03 seconds.
Warning: Simulation tolerance relaxed to achieve convergence from 2.3282683502204001e-03 to 2.3282683502204101e-03 seconds.
Warning: Simulation tolerance relaxed to achieve convergence from 2.3282683502204101e-03 to 2.3282683502204200e-03 seconds.
Warning: Simulation tolerance relaxed to achieve convergence from 2.3282683502215402e-03 to 2.3282683502215502e-03 seconds.
Warning: Simulation tolerance relaxed to achieve convergence from 2.4410481266092369e-03 to 2.4410481266092469e-03 seconds.
Warning: Simulation tolerance relaxed to achieve convergence from 2.4410481266092668e-03 to 2.4410481266092768e-03 seconds.
Warning: Simulation tolerance relaxed to achieve convergence from 2.4410481266093067e-03 to 2.4410481266093167e-03 seconds.
Warning: Simulation tolerance relaxed to achieve convergence from 2.4410481266093267e-03 to 2.4410481266093366e-03 seconds.
Warning: Simulation tolerance relaxed to achieve convergence from 2.4410481266093366e-03 to 2.4410481266093466e-03 seconds.
Warning: Simulation tolerance relaxed to achieve convergence from 2.4410481266093566e-03 to 2.4410481266093666e-03 seconds.
Warning: Simulation tolerance relaxed to achieve convergence from 2.4410481266093666e-03 to 2.4410481266093765e-03 seconds.
Warning: Simulation tolerance relaxed to achieve convergence from 2.4410481266093765e-03 to 2.4410481266093865e-03 seconds.
Warning: Simulation tolerance relaxed to achieve convergence from 2.4410481266093865e-03 to 2.4410481266093965e-03 seconds.
Warning: Simulation tolerance relaxed to achieve convergence from 2.4711255761075738e-03 to 2.4711255761075837e-03 seconds.
Warning: Simulation tolerance relaxed to achieve convergence from 2.5764890286913943e-03 to 2.5764890286914042e-03 seconds.
Warning: Simulation tolerance relaxed to achieve convergence from 2.5764890286914242e-03 to 2.5764890286914342e-03 seconds.
Warning: Simulation tolerance relaxed to achieve convergence from 2.5764890286914940e-03 to 2.5764890286915040e-03 seconds.
Warning: Simulation tolerance relaxed to achieve convergence from 2.5764890286915838e-03 to 2.5764890286915938e-03 seconds.
Warning: Simulation tolerance relaxed to achieve convergence from 2.5764890286915938e-03 to 2.5764890286916037e-03 seconds.
Warning: Simulation tolerance relaxed to achieve convergence from 2.5764890286916636e-03 to 2.5764890286916736e-03 seconds.
Warning: Simulation tolerance relaxed to achieve convergence from 2.5764890286916736e-03 to 2.5764890286916835e-03 seconds.
Warning: Simulation tolerance relaxed to achieve convergence from 2.5764890286917135e-03 to 2.5764890286917234e-03 seconds.
Warning: Simulation tolerance relaxed to achieve convergence from 2.5764890286926025e-03 to 2.5764890286926125e-03 seconds.
Warning: Simulation tolerance relaxed to achieve convergence from 2.5764890286926723e-03 to 2.5764890286926823e-03 seconds.
Warning: Simulation tolerance relaxed to achieve convergence from 2.5764890286927122e-03 to 2.5764890286927222e-03 seconds.
Warning: Simulation tolerance relaxed to achieve convergence from 2.5764890286927421e-03 to 2.5764890286927521e-03 seconds.
Warning: Simulation tolerance relaxed to achieve convergence from 2.5764890286928419e-03 to 2.5764890286928519e-03 seconds.
Warning: Simulation tolerance relaxed to achieve convergence from 2.9148298953240574e-03 to 2.9148298953240773e-03 seconds.
Warning: Simulation tolerance relaxed to achieve convergence from 2.9148298953240873e-03 to 2.9148298953240973e-03 seconds.
Warning: Simulation tolerance relaxed to achieve convergence from 3.0577040509672353e-03 to 3.0577040509672452e-03 seconds.
Warning: Simulation tolerance relaxed to achieve convergence from 3.0577040509673151e-03 to 3.0577040509673250e-03 seconds.
Warning: Simulation tolerance relaxed to achieve convergence from 3.0577040509673450e-03 to 3.0577040509673550e-03 seconds.
Warning: Simulation tolerance relaxed to achieve convergence from 3.0577040509673649e-03 to 3.0577040509673749e-03 seconds.
Warning: Simulation tolerance relaxed to achieve convergence from 3.0577040509673749e-03 to 3.0577040509673849e-03 seconds.
Warning: Simulation tolerance relaxed to achieve convergence from 3.0577040509674747e-03 to 3.0577040509674846e-03 seconds.
Warning: Simulation tolerance relaxed to achieve convergence from 3.0577040509675844e-03 to 3.0577040509675944e-03 seconds.
Warning: Simulation tolerance relaxed to achieve convergence from 3.0577040509676642e-03 to 3.0577040509676742e-03 seconds.
Warning: Simulation tolerance relaxed to achieve convergence from 3.0577040509677041e-03 to 3.0577040509677141e-03 seconds.
Warning: Simulation tolerance relaxed to achieve convergence from 3.0577040509677141e-03 to 3.0577040509677240e-03 seconds.
Warning: Simulation tolerance relaxed to achieve convergence from 3.0577040509678038e-03 to 3.0577040509678138e-03 seconds.
Warning: Simulation tolerance relaxed to achieve convergence from 3.0577040509678138e-03 to 3.0577040509678238e-03 seconds.
Warning: Simulation tolerance relaxed to achieve convergence from 3.0577040509678338e-03 to 3.0577040509678437e-03 seconds.
Warning: Simulation tolerance relaxed to achieve convergence from 3.0577040509679036e-03 to 3.0577040509679135e-03 seconds.
Warning: Simulation tolerance relaxed to achieve convergence from 3.0577040509680931e-03 to 3.0577040509681031e-03 seconds.
Warning: Simulation tolerance relaxed to achieve convergence from 3.0577040509681130e-03 to 3.0577040509681230e-03 seconds.
Warning: Simulation tolerance relaxed to achieve convergence from 3.2456492085862522e-03 to 3.2456492085862622e-03 seconds.
Warning: Simulation tolerance relaxed to achieve convergence from 3.2456492085862622e-03 to 3.2456492085862721e-03 seconds.
Warning: Simulation tolerance relaxed to achieve convergence from 3.2456492085863420e-03 to 3.2456492085863519e-03 seconds.
Warning: Simulation tolerance relaxed to achieve convergence from 3.2456492085863619e-03 to 3.2456492085863719e-03 seconds.
Warning: Simulation tolerance relaxed to achieve convergence from 3.2456492085863819e-03 to 3.2456492085863918e-03 seconds.
Warning: Simulation tolerance relaxed to achieve convergence from 3.2456492085863918e-03 to 3.2456492085864018e-03 seconds.
Warning: Simulation tolerance relaxed to achieve convergence from 3.2456492085865415e-03 to 3.2456492085865514e-03 seconds.
Warning: Simulation tolerance relaxed to achieve convergence from 3.2456492085865514e-03 to 3.2456492085865614e-03 seconds.
Warning: Simulation tolerance relaxed to achieve convergence from 3.2456492085865614e-03 to 3.2456492085865714e-03 seconds.
Warning: Simulation tolerance relaxed to achieve convergence from 3.2456492085866213e-03 to 3.2456492085866312e-03 seconds.
Warning: Simulation tolerance relaxed to achieve convergence from 3.2456492085869409e-03 to 3.2456492085869509e-03 seconds.
Warning: Simulation tolerance relaxed to achieve convergence from 3.2456492085871603e-03 to 3.2456492085871703e-03 seconds.
Warning: Simulation tolerance relaxed to achieve convergence from 3.2456492085873399e-03 to 3.2456492085873498e-03 seconds.
Warning: Simulation tolerance relaxed to achieve convergence from 3.3208415176893958e-03 to 3.3208415176894058e-03 seconds.
Warning: Simulation tolerance relaxed to achieve convergence from 3.3208415176894357e-03 to 3.3208415176894457e-03 seconds.
Warning: Simulation tolerance relaxed to achieve convergence from 3.3208415176894557e-03 to 3.3208415176894657e-03 seconds.
Warning: Simulation tolerance relaxed to achieve convergence from 3.4712084207314847e-03 to 3.4712084207314947e-03 seconds.
Warning: Simulation tolerance relaxed to achieve convergence from 3.4712084207316044e-03 to 3.4712084207316144e-03 seconds.
Warning: Simulation tolerance relaxed to achieve convergence from 3.8472160516691421e-03 to 3.8472160516691521e-03 seconds.
Warning: Simulation tolerance relaxed to achieve convergence from 3.8472160516694314e-03 to 3.8472160516694414e-03 seconds.
Warning: Simulation tolerance relaxed to achieve convergence from 3.8472160516700611e-03 to 3.8472160516700711e-03 seconds.
Warning: Simulation tolerance relaxed to achieve convergence from 3.8472160516725092e-03 to 3.8472160516725192e-03 seconds.
Warning: Simulation tolerance relaxed to achieve convergence from 4.3810264947151210e-03 to 4.3810264947151314e-03 seconds.
Warning: Simulation tolerance relaxed to achieve convergence from 4.3810264947151617e-03 to 4.3810264947151721e-03 seconds.
Warning: Simulation tolerance relaxed to achieve convergence from 4.3810264947151721e-03 to 4.3810264947151826e-03 seconds.
Warning: Simulation tolerance relaxed to achieve convergence from 4.3810264947151826e-03 to 4.3810264947151930e-03 seconds.
Warning: Simulation tolerance relaxed to achieve convergence from 4.3810264947152337e-03 to 4.3810264947152441e-03 seconds.
Warning: Simulation tolerance relaxed to achieve convergence from 4.3810264947152441e-03 to 4.3810264947152545e-03 seconds.
Warning: Simulation tolerance relaxed to achieve convergence from 4.3810264947159536e-03 to 4.3810264947159640e-03 seconds.
Warning: Simulation tolerance relaxed to achieve convergence from 4.3810264947160759e-03 to 4.3810264947160863e-03 seconds.
Warning: Simulation tolerance relaxed to achieve convergence from 4.4412096810765222e-03 to 4.4412096810765326e-03 seconds.
Warning: Simulation tolerance relaxed to achieve convergence from 4.4412096810772430e-03 to 4.4412096810772534e-03 seconds.
Warning: Simulation tolerance relaxed to achieve convergence from 4.4412096810774347e-03 to 4.4412096810774451e-03 seconds.
Total elapsed time: 78.022 seconds.

Files loaded:
Z:\home\fadelrio\Documents\Ingenieria\Taller de circuitos\TP\quinto_check\fuente_conmutada_1.net
C:\users\fadelrio\AppData\Local\LTspice\lib\cmp\standard.dio
C:\users\fadelrio\AppData\Local\LTspice\lib\cmp\standard.mos
Z:\home\fadelrio\Documents\Ingenieria\Taller de circuitos\TP\quinto_check\IR2104.lib
Z:\home\fadelrio\Documents\Ingenieria\Taller de circuitos\TP\quinto_check\LM393A.lib
C:\users\fadelrio\AppData\Local\LTspice\lib\sub\ADI.lib

