LTspice 24.1.10 for Windows
Circuit: Z:\home\fadelrio\Documents\Ingenieria\Taller de circuitos\TP\quinto_check\fuente_conmutada_1.net
Start Time: Tue Dec  2 15:18:56 2025
Options: cshunt=1e-15  abstol=1e-10  gmin=1e-10
solver = Normal
Maximum thread count: 16
tnom = 27
temp = 27
method = modified trap
gmin = 1e-10
abstol = 1e-10
Instance "u1:x_gd_template:x_ho_stage:M_HO_PMOS": Length shorter than recommended for a level 1 MOSFET.
Instance "u1:x_gd_template:x_ho_stage:M_HO_NMOS": Length shorter than recommended for a level 1 MOSFET.
Instance "u1:x_gd_template:x_lo_stage:M_LO_PMOS": Length shorter than recommended for a level 1 MOSFET.
Instance "u1:x_gd_template:x_lo_stage:M_LO_NMOS": Length shorter than recommended for a level 1 MOSFET.
Direct Newton iteration failed to find .op point.  (Use ".option noopiter" to skip.)
Starting Gmin stepping
Gmin = 10
Gmin = 1.07374
vernier = 0.5
vernier = 0.25
vernier = 0.125
vernier = 0.0625
Gmin = 0.995033
vernier = 0.03125
vernier = 0.015625
vernier = 0.0078125
vernier = 0.00390625
vernier = 0.00195312
vernier = 0.000976562
Gmin = 1.00275
vernier = 0.000488281
Gmin = 0
Gmin stepping failed

Starting source stepping with srcstepmethod=0
Source Step = 3.0303%
Source Step = 33.3333%
Source Step = 40.1515%
Source Step = 47.7273%
Source Step = 50.0089%
Starting source stepping with srcstepmethod=1
Source Step = 3.0303%
Source Step = 33.3333%
Source Step = 50.1894%
vernier = 0.015625
Source stepping failed

Pseudo Transient failed in finding the operating point at 5.00122 µs.
Trouble finding operating point....skipping operating point for Transient analysis.
Changing Tseed to 4.88281e-09
Changing Tseed to 4.88281e-11
Changing Tseed to 4.88281e-08
Changing Tseed to 4.88281e-12
Changing Tseed to 4.88281e-07
Changing Tseed to 4.88281e-13
Changing Tseed to 4.88281e-06
Changing Tseed to 4.88281e-14
Warning: Simulation tolerance relaxed to achieve convergence from 6.7433311719892315e-07 to 6.7433311719992318e-07 seconds.
Warning: Simulation tolerance relaxed to achieve convergence from 6.7433311720192313e-07 to 6.7433311720292316e-07 seconds.
Warning: Simulation tolerance relaxed to achieve convergence from 6.7433311721292323e-07 to 6.7433311721392326e-07 seconds.
Warning: Simulation tolerance relaxed to achieve convergence from 5.3718043761107612e-04 to 5.3718043761107710e-04 seconds.
Warning: Simulation tolerance relaxed to achieve convergence from 5.3718043761108501e-04 to 5.3718043761108599e-04 seconds.
Warning: Simulation tolerance relaxed to achieve convergence from 5.3718043761108599e-04 to 5.3718043761108697e-04 seconds.
Warning: Simulation tolerance relaxed to achieve convergence from 5.3718043761108989e-04 to 5.3718043761109087e-04 seconds.
Warning: Simulation tolerance relaxed to achieve convergence from 5.3718043761109087e-04 to 5.3718043761109184e-04 seconds.
Warning: Simulation tolerance relaxed to achieve convergence from 5.3718043761109184e-04 to 5.3718043761109282e-04 seconds.
Warning: Simulation tolerance relaxed to achieve convergence from 5.3718043761109282e-04 to 5.3718043761109380e-04 seconds.
Warning: Simulation tolerance relaxed to achieve convergence from 5.3718043761110659e-04 to 5.3718043761110756e-04 seconds.
Warning: Simulation tolerance relaxed to achieve convergence from 5.3718043761110756e-04 to 5.3718043761110854e-04 seconds.
Warning: Simulation tolerance relaxed to achieve convergence from 5.3718043761110952e-04 to 5.3718043761111049e-04 seconds.
Warning: Simulation tolerance relaxed to achieve convergence from 5.3718043761112231e-04 to 5.3718043761112329e-04 seconds.
Warning: Simulation tolerance relaxed to achieve convergence from 5.3718043761112329e-04 to 5.3718043761112426e-04 seconds.
Warning: Simulation tolerance relaxed to achieve convergence from 5.3718043761113825e-04 to 5.3718043761113922e-04 seconds.
Warning: Simulation tolerance relaxed to achieve convergence from 5.3718043761116926e-04 to 5.3718043761117023e-04 seconds.
Warning: Simulation tolerance relaxed to achieve convergence from 5.3718043761117121e-04 to 5.3718043761117218e-04 seconds.
Warning: Simulation tolerance relaxed to achieve convergence from 5.3718043761117218e-04 to 5.3718043761117316e-04 seconds.
Warning: Simulation tolerance relaxed to achieve convergence from 5.3718043761117316e-04 to 5.3718043761117413e-04 seconds.
Warning: Simulation tolerance relaxed to achieve convergence from 5.3718043761117413e-04 to 5.3718043761117511e-04 seconds.
Warning: Simulation tolerance relaxed to achieve convergence from 5.3718043761118107e-04 to 5.3718043761118205e-04 seconds.
Warning: Simulation tolerance relaxed to achieve convergence from 5.3718043761118801e-04 to 5.3718043761118899e-04 seconds.
Warning: Simulation tolerance relaxed to achieve convergence from 5.3718043761118899e-04 to 5.3718043761118996e-04 seconds.
Warning: Simulation tolerance relaxed to achieve convergence from 5.3718043761118996e-04 to 5.3718043761119094e-04 seconds.
Warning: Simulation tolerance relaxed to achieve convergence from 5.3718043761119094e-04 to 5.3718043761119192e-04 seconds.
Warning: Simulation tolerance relaxed to achieve convergence from 5.3718043761119289e-04 to 5.3718043761119387e-04 seconds.
Warning: Simulation tolerance relaxed to achieve convergence from 5.3718043761119387e-04 to 5.3718043761119484e-04 seconds.
Warning: Simulation tolerance relaxed to achieve convergence from 5.3718043761119484e-04 to 5.3718043761119582e-04 seconds.
Warning: Simulation tolerance relaxed to achieve convergence from 5.3718043761122357e-04 to 5.3718043761122455e-04 seconds.
Warning: Simulation tolerance relaxed to achieve convergence from 5.3718043761122650e-04 to 5.3718043761122748e-04 seconds.
Warning: Simulation tolerance relaxed to achieve convergence from 5.3718043761122943e-04 to 5.3718043761123041e-04 seconds.
Warning: Simulation tolerance relaxed to achieve convergence from 5.3718043761123333e-04 to 5.3718043761123431e-04 seconds.
Warning: Simulation tolerance relaxed to achieve convergence from 5.3718043761175928e-04 to 5.3718043761176025e-04 seconds.
Warning: Simulation tolerance relaxed to achieve convergence from 5.3718043761176318e-04 to 5.3718043761176416e-04 seconds.
Warning: Simulation tolerance relaxed to achieve convergence from 5.3718043761176513e-04 to 5.3718043761176611e-04 seconds.
Warning: Simulation tolerance relaxed to achieve convergence from 5.3718043761180818e-04 to 5.3718043761180915e-04 seconds.
Warning: Simulation tolerance relaxed to achieve convergence from 5.3718043761181208e-04 to 5.3718043761181306e-04 seconds.
Warning: Simulation tolerance relaxed to achieve convergence from 5.3718043761189188e-04 to 5.3718043761189285e-04 seconds.
Warning: Simulation tolerance relaxed to achieve convergence from 5.3718043761189285e-04 to 5.3718043761189383e-04 seconds.
Warning: Simulation tolerance relaxed to achieve convergence from 5.3718043761189578e-04 to 5.3718043761189676e-04 seconds.
Warning: Simulation tolerance relaxed to achieve convergence from 5.3718043761189773e-04 to 5.3718043761189871e-04 seconds.
Warning: Simulation tolerance relaxed to achieve convergence from 5.3718043761190066e-04 to 5.3718043761190163e-04 seconds.
Warning: Simulation tolerance relaxed to achieve convergence from 5.3718043761190163e-04 to 5.3718043761190261e-04 seconds.
Warning: Simulation tolerance relaxed to achieve convergence from 5.3718043761190456e-04 to 5.3718043761190554e-04 seconds.
Warning: Simulation tolerance relaxed to achieve convergence from 5.3718043761191042e-04 to 5.3718043761191139e-04 seconds.
Warning: Simulation tolerance relaxed to achieve convergence from 5.3718043761192831e-04 to 5.3718043761192928e-04 seconds.
Warning: Simulation tolerance relaxed to achieve convergence from 5.3718043761192928e-04 to 5.3718043761193026e-04 seconds.
Warning: Simulation tolerance relaxed to achieve convergence from 5.3718043761193026e-04 to 5.3718043761193123e-04 seconds.
Warning: Simulation tolerance relaxed to achieve convergence from 5.3718043761193123e-04 to 5.3718043761193221e-04 seconds.
Warning: Simulation tolerance relaxed to achieve convergence from 5.3718043761193318e-04 to 5.3718043761193416e-04 seconds.
Warning: Simulation tolerance relaxed to achieve convergence from 5.3718043761193514e-04 to 5.3718043761193611e-04 seconds.
Warning: Simulation tolerance relaxed to achieve convergence from 5.3718043761195801e-04 to 5.3718043761195899e-04 seconds.
Warning: Simulation tolerance relaxed to achieve convergence from 5.3718043761195899e-04 to 5.3718043761195996e-04 seconds.
Warning: Simulation tolerance relaxed to achieve convergence from 5.3718043761195996e-04 to 5.3718043761196094e-04 seconds.
Warning: Simulation tolerance relaxed to achieve convergence from 5.3718043761196192e-04 to 5.3718043761196289e-04 seconds.
Warning: Simulation tolerance relaxed to achieve convergence from 5.3718043763287466e-04 to 5.3718043763287563e-04 seconds.
Warning: Simulation tolerance relaxed to achieve convergence from 5.3718043763287759e-04 to 5.3718043763287856e-04 seconds.
Warning: Simulation tolerance relaxed to achieve convergence from 5.3718043763288051e-04 to 5.3718043763288149e-04 seconds.
Warning: Simulation tolerance relaxed to achieve convergence from 5.3718043763288149e-04 to 5.3718043763288246e-04 seconds.
Warning: Simulation tolerance relaxed to achieve convergence from 5.3718043763288940e-04 to 5.3718043763289038e-04 seconds.
Warning: Simulation tolerance relaxed to achieve convergence from 5.3718043763289428e-04 to 5.3718043763289526e-04 seconds.
Warning: Simulation tolerance relaxed to achieve convergence from 5.3718043763290220e-04 to 5.3718043763290317e-04 seconds.
Warning: Simulation tolerance relaxed to achieve convergence from 5.3718043763290805e-04 to 5.3718043763290903e-04 seconds.
Warning: Simulation tolerance relaxed to achieve convergence from 5.3718043763291586e-04 to 5.3718043763291683e-04 seconds.
Warning: Simulation tolerance relaxed to achieve convergence from 5.3718043763291683e-04 to 5.3718043763291781e-04 seconds.
Warning: Simulation tolerance relaxed to achieve convergence from 5.3718043763292269e-04 to 5.3718043763292366e-04 seconds.
Warning: Simulation tolerance relaxed to achieve convergence from 5.3718043763292757e-04 to 5.3718043763292854e-04 seconds.
Warning: Simulation tolerance relaxed to achieve convergence from 5.3718043763292952e-04 to 5.3718043763293049e-04 seconds.
Warning: Simulation tolerance relaxed to achieve convergence from 5.3718043763293049e-04 to 5.3718043763293147e-04 seconds.
Warning: Simulation tolerance relaxed to achieve convergence from 5.3718043763294231e-04 to 5.3718043763294329e-04 seconds.
Warning: Simulation tolerance relaxed to achieve convergence from 5.3718043763294329e-04 to 5.3718043763294426e-04 seconds.
Warning: Simulation tolerance relaxed to achieve convergence from 5.3718043763296096e-04 to 5.3718043763296194e-04 seconds.
Warning: Simulation tolerance relaxed to achieve convergence from 5.3718043763296888e-04 to 5.3718043763296985e-04 seconds.
Warning: Simulation tolerance relaxed to achieve convergence from 5.3718043763297473e-04 to 5.3718043763297571e-04 seconds.
Warning: Simulation tolerance relaxed to achieve convergence from 5.3718043763297668e-04 to 5.3718043763297766e-04 seconds.
Warning: Simulation tolerance relaxed to achieve convergence from 5.3718043763297766e-04 to 5.3718043763297863e-04 seconds.
Warning: Simulation tolerance relaxed to achieve convergence from 5.3718043763297863e-04 to 5.3718043763297961e-04 seconds.
Warning: Simulation tolerance relaxed to achieve convergence from 5.3718043763299034e-04 to 5.3718043763299132e-04 seconds.
Warning: Simulation tolerance relaxed to achieve convergence from 5.3718043763299522e-04 to 5.3718043763299620e-04 seconds.
Warning: Simulation tolerance relaxed to achieve convergence from 5.3718043763300108e-04 to 5.3718043763300205e-04 seconds.
Warning: Simulation tolerance relaxed to achieve convergence from 5.3718043763300596e-04 to 5.3718043763300693e-04 seconds.
Warning: Simulation tolerance relaxed to achieve convergence from 5.3718043763301777e-04 to 5.3718043763301875e-04 seconds.
Warning: Simulation tolerance relaxed to achieve convergence from 5.3718043763301875e-04 to 5.3718043763301972e-04 seconds.
Warning: Simulation tolerance relaxed to achieve convergence from 5.3718043763302265e-04 to 5.3718043763302363e-04 seconds.
Warning: Simulation tolerance relaxed to achieve convergence from 5.3718043763302558e-04 to 5.3718043763302655e-04 seconds.
Warning: Simulation tolerance relaxed to achieve convergence from 5.3718043763302948e-04 to 5.3718043763303046e-04 seconds.
Warning: Simulation tolerance relaxed to achieve convergence from 5.3718043763303436e-04 to 5.3718043763303534e-04 seconds.
Warning: Simulation tolerance relaxed to achieve convergence from 5.3718043763303729e-04 to 5.3718043763303826e-04 seconds.
Warning: Simulation tolerance relaxed to achieve convergence from 5.3718043763304022e-04 to 5.3718043763304119e-04 seconds.
Warning: Simulation tolerance relaxed to achieve convergence from 5.3718043763304314e-04 to 5.3718043763304412e-04 seconds.
Warning: Simulation tolerance relaxed to achieve convergence from 5.3718043763305106e-04 to 5.3718043763305203e-04 seconds.
Warning: Simulation tolerance relaxed to achieve convergence from 5.3718043763305203e-04 to 5.3718043763305301e-04 seconds.
Warning: Simulation tolerance relaxed to achieve convergence from 5.3718043763305399e-04 to 5.3718043763305496e-04 seconds.
Warning: Simulation tolerance relaxed to achieve convergence from 5.3718043763318290e-04 to 5.3718043763318387e-04 seconds.
Warning: Simulation tolerance relaxed to achieve convergence from 5.3718043763318387e-04 to 5.3718043763318485e-04 seconds.
Warning: Simulation tolerance relaxed to achieve convergence from 5.3718043763318778e-04 to 5.3718043763318875e-04 seconds.
Warning: Simulation tolerance relaxed to achieve convergence from 7.1717761993106508e-04 to 7.1717761993106606e-04 seconds.
Warning: Simulation tolerance relaxed to achieve convergence from 7.1717761993107397e-04 to 7.1717761993107495e-04 seconds.
Warning: Simulation tolerance relaxed to achieve convergence from 7.1717761993107788e-04 to 7.1717761993107885e-04 seconds.
Warning: Simulation tolerance relaxed to achieve convergence from 7.1717761993109479e-04 to 7.1717761993109576e-04 seconds.
Warning: Simulation tolerance relaxed to achieve convergence from 7.1717761993110867e-04 to 7.1717761993110964e-04 seconds.
Warning: Simulation tolerance relaxed to achieve convergence from 7.1717761993110964e-04 to 7.1717761993111062e-04 seconds.
Warning: Simulation tolerance relaxed to achieve convergence from 7.1717761993111159e-04 to 7.1717761993111257e-04 seconds.
Warning: Simulation tolerance relaxed to achieve convergence from 7.1717761993111550e-04 to 7.1717761993111647e-04 seconds.
Warning: Simulation tolerance relaxed to achieve convergence from 7.1717761993111647e-04 to 7.1717761993111745e-04 seconds.
Warning: Simulation tolerance relaxed to achieve convergence from 7.1717761993113740e-04 to 7.1717761993113837e-04 seconds.
Warning: Simulation tolerance relaxed to achieve convergence from 7.1717761993114531e-04 to 7.1717761993114629e-04 seconds.
Warning: Simulation tolerance relaxed to achieve convergence from 7.1717761993119107e-04 to 7.1717761993119204e-04 seconds.
Warning: Simulation tolerance relaxed to achieve convergence from 7.1717761993119887e-04 to 7.1717761993119985e-04 seconds.
Warning: Simulation tolerance relaxed to achieve convergence from 7.1717761993132876e-04 to 7.1717761993132974e-04 seconds.
Warning: Simulation tolerance relaxed to achieve convergence from 7.1717761993134665e-04 to 7.1717761993134762e-04 seconds.
Warning: Simulation tolerance relaxed to achieve convergence from 7.1717761993134762e-04 to 7.1717761993134860e-04 seconds.
Warning: Simulation tolerance relaxed to achieve convergence from 7.1717761993134860e-04 to 7.1717761993134958e-04 seconds.
Warning: Simulation tolerance relaxed to achieve convergence from 7.1717761993134958e-04 to 7.1717761993135055e-04 seconds.
Warning: Simulation tolerance relaxed to achieve convergence from 7.7718461161640226e-04 to 7.7718461161640324e-04 seconds.
Warning: Simulation tolerance relaxed to achieve convergence from 7.7718461161714407e-04 to 7.7718461161714505e-04 seconds.
Warning: Simulation tolerance relaxed to achieve convergence from 7.7718461161714505e-04 to 7.7718461161714603e-04 seconds.
Warning: Simulation tolerance relaxed to achieve convergence from 7.7718461161727396e-04 to 7.7718461161727494e-04 seconds.
Warning: Simulation tolerance relaxed to achieve convergence from 7.7718461161727494e-04 to 7.7718461161727591e-04 seconds.
Warning: Simulation tolerance relaxed to achieve convergence from 7.7718461161727591e-04 to 7.7718461161727689e-04 seconds.
Warning: Simulation tolerance relaxed to achieve convergence from 7.7718461161729163e-04 to 7.7718461161729261e-04 seconds.
Warning: Simulation tolerance relaxed to achieve convergence from 7.7718461161729261e-04 to 7.7718461161729359e-04 seconds.
Warning: Simulation tolerance relaxed to achieve convergence from 7.7718461161729846e-04 to 7.7718461161729944e-04 seconds.
Warning: Simulation tolerance relaxed to achieve convergence from 9.8067325974146471e-04 to 9.8067325974146580e-04 seconds.
Warning: Simulation tolerance relaxed to achieve convergence from 9.8067325974147165e-04 to 9.8067325974147274e-04 seconds.
Warning: Simulation tolerance relaxed to achieve convergence from 9.8067325974147859e-04 to 9.8067325974147967e-04 seconds.
Warning: Simulation tolerance relaxed to achieve convergence from 9.8067325974148553e-04 to 9.8067325974148661e-04 seconds.
Warning: Simulation tolerance relaxed to achieve convergence from 9.8067325974149399e-04 to 9.8067325974149507e-04 seconds.
Warning: Simulation tolerance relaxed to achieve convergence from 9.8067325974150786e-04 to 9.8067325974150895e-04 seconds.
Warning: Simulation tolerance relaxed to achieve convergence from 9.8067325974150895e-04 to 9.8067325974151003e-04 seconds.
Warning: Simulation tolerance relaxed to achieve convergence from 9.8067325974151198e-04 to 9.8067325974151307e-04 seconds.
Warning: Simulation tolerance relaxed to achieve convergence from 9.8067325974152001e-04 to 9.8067325974152109e-04 seconds.
Warning: Simulation tolerance relaxed to achieve convergence from 9.8067325974152521e-04 to 9.8067325974152630e-04 seconds.
Warning: Simulation tolerance relaxed to achieve convergence from 9.8067325974154516e-04 to 9.8067325974154624e-04 seconds.
Warning: Simulation tolerance relaxed to achieve convergence from 9.8067325974156901e-04 to 9.8067325974157010e-04 seconds.
Warning: Simulation tolerance relaxed to achieve convergence from 9.8067325974157227e-04 to 9.8067325974157335e-04 seconds.
Warning: Simulation tolerance relaxed to achieve convergence from 9.8067325974157335e-04 to 9.8067325974157443e-04 seconds.
Warning: Simulation tolerance relaxed to achieve convergence from 9.8067325974157877e-04 to 9.8067325974157986e-04 seconds.
Warning: Simulation tolerance relaxed to achieve convergence from 9.8067325974158679e-04 to 9.8067325974158788e-04 seconds.
Warning: Simulation tolerance relaxed to achieve convergence from 9.8067325974158896e-04 to 9.8067325974159005e-04 seconds.
Warning: Simulation tolerance relaxed to achieve convergence from 9.8067325974159308e-04 to 9.8067325974159417e-04 seconds.
Warning: Simulation tolerance relaxed to achieve convergence from 9.8067325974160935e-04 to 9.8067325974161043e-04 seconds.
Warning: Simulation tolerance relaxed to achieve convergence from 9.8067325974162583e-04 to 9.8067325974162691e-04 seconds.
Warning: Simulation tolerance relaxed to achieve convergence from 9.8067325974173338e-04 to 9.8067325974173446e-04 seconds.
Warning: Simulation tolerance relaxed to achieve convergence from 9.8067325974174834e-04 to 9.8067325974174942e-04 seconds.
Warning: Simulation tolerance relaxed to achieve convergence from 9.8067325974178325e-04 to 9.8067325974178434e-04 seconds.
Warning: Simulation tolerance relaxed to achieve convergence from 9.8067325974179019e-04 to 9.8067325974179127e-04 seconds.
Warning: Simulation tolerance relaxed to achieve convergence from 9.8067325974179843e-04 to 9.8067325974179951e-04 seconds.
Warning: Simulation tolerance relaxed to achieve convergence from 9.8067325974180840e-04 to 9.8067325974180949e-04 seconds.
Warning: Simulation tolerance relaxed to achieve convergence from 9.8067325974181252e-04 to 9.8067325974181361e-04 seconds.
Warning: Simulation tolerance relaxed to achieve convergence from 9.8067325974181946e-04 to 9.8067325974182055e-04 seconds.
Warning: Simulation tolerance relaxed to achieve convergence from 9.8067325974182250e-04 to 9.8067325974182358e-04 seconds.
Warning: Simulation tolerance relaxed to achieve convergence from 9.8067325974182662e-04 to 9.8067325974182770e-04 seconds.
Warning: Simulation tolerance relaxed to achieve convergence from 9.8067325974182966e-04 to 9.8067325974183074e-04 seconds.
Warning: Simulation tolerance relaxed to achieve convergence from 9.8067325974183378e-04 to 9.8067325974183486e-04 seconds.
Warning: Simulation tolerance relaxed to achieve convergence from 9.8067325974183486e-04 to 9.8067325974183594e-04 seconds.
Warning: Simulation tolerance relaxed to achieve convergence from 9.8067325974183594e-04 to 9.8067325974183703e-04 seconds.
Warning: Simulation tolerance relaxed to achieve convergence from 9.8067325974183920e-04 to 9.8067325974184028e-04 seconds.
Warning: Simulation tolerance relaxed to achieve convergence from 9.8067325974185026e-04 to 9.8067325974185134e-04 seconds.
Warning: Simulation tolerance relaxed to achieve convergence from 9.8067325974185134e-04 to 9.8067325974185242e-04 seconds.
Warning: Simulation tolerance relaxed to achieve convergence from 9.8067325974185242e-04 to 9.8067325974185351e-04 seconds.
Warning: Simulation tolerance relaxed to achieve convergence from 9.8067325974185958e-04 to 9.8067325974186066e-04 seconds.
Warning: Simulation tolerance relaxed to achieve convergence from 9.8067325974186890e-04 to 9.8067325974186999e-04 seconds.
Warning: Simulation tolerance relaxed to achieve convergence from 9.8067325974187194e-04 to 9.8067325974187302e-04 seconds.
Warning: Simulation tolerance relaxed to achieve convergence from 1.4181179964377955e-03 to 1.4181179964378055e-03 seconds.
Warning: Simulation tolerance relaxed to achieve convergence from 1.4181179964378055e-03 to 1.4181179964378155e-03 seconds.
Warning: Simulation tolerance relaxed to achieve convergence from 1.4181179964378554e-03 to 1.4181179964378654e-03 seconds.
Warning: Simulation tolerance relaxed to achieve convergence from 1.4181179964378654e-03 to 1.4181179964378753e-03 seconds.
Warning: Simulation tolerance relaxed to achieve convergence from 1.4181179964379454e-03 to 1.4181179964379554e-03 seconds.
Warning: Simulation tolerance relaxed to achieve convergence from 1.4181179964379554e-03 to 1.4181179964379653e-03 seconds.
Warning: Simulation tolerance relaxed to achieve convergence from 1.4181179964379653e-03 to 1.4181179964379753e-03 seconds.
Warning: Simulation tolerance relaxed to achieve convergence from 1.4181179964384250e-03 to 1.4181179964384350e-03 seconds.
Warning: Simulation tolerance relaxed to achieve convergence from 1.4181179964384350e-03 to 1.4181179964384450e-03 seconds.
Warning: Simulation tolerance relaxed to achieve convergence from 1.4181179964384649e-03 to 1.4181179964384749e-03 seconds.
Warning: Simulation tolerance relaxed to achieve convergence from 1.4181179964384749e-03 to 1.4181179964384849e-03 seconds.
Warning: Simulation tolerance relaxed to achieve convergence from 1.4181179964385148e-03 to 1.4181179964385248e-03 seconds.
Warning: Simulation tolerance relaxed to achieve convergence from 1.4181179964385647e-03 to 1.4181179964385747e-03 seconds.
Warning: Simulation tolerance relaxed to achieve convergence from 1.4181179964385946e-03 to 1.4181179964386046e-03 seconds.
Warning: Simulation tolerance relaxed to achieve convergence from 1.4407937038371974e-03 to 1.4407937038372074e-03 seconds.
Warning: Simulation tolerance relaxed to achieve convergence from 1.4407937038372674e-03 to 1.4407937038372774e-03 seconds.
Warning: Simulation tolerance relaxed to achieve convergence from 1.4407937038373073e-03 to 1.4407937038373173e-03 seconds.
Warning: Simulation tolerance relaxed to achieve convergence from 1.4407937038374574e-03 to 1.4407937038374674e-03 seconds.
Warning: Simulation tolerance relaxed to achieve convergence from 1.4407937038374773e-03 to 1.4407937038374873e-03 seconds.
Warning: Simulation tolerance relaxed to achieve convergence from 1.4407937038377172e-03 to 1.4407937038377271e-03 seconds.
Warning: Simulation tolerance relaxed to achieve convergence from 1.4407937038377872e-03 to 1.4407937038377972e-03 seconds.
Warning: Simulation tolerance relaxed to achieve convergence from 1.4407937038380973e-03 to 1.4407937038381073e-03 seconds.
Warning: Simulation tolerance relaxed to achieve convergence from 1.4407937038385273e-03 to 1.4407937038385373e-03 seconds.
Warning: Simulation tolerance relaxed to achieve convergence from 1.4407937038385373e-03 to 1.4407937038385472e-03 seconds.
Warning: Simulation tolerance relaxed to achieve convergence from 1.4407937038385772e-03 to 1.4407937038385871e-03 seconds.
Warning: Simulation tolerance relaxed to achieve convergence from 1.4407937038387170e-03 to 1.4407937038387270e-03 seconds.
Warning: Simulation tolerance relaxed to achieve convergence from 1.5086114177086472e-03 to 1.5086114177086571e-03 seconds.
Warning: Simulation tolerance relaxed to achieve convergence from 1.5086114177086571e-03 to 1.5086114177086671e-03 seconds.
Warning: Simulation tolerance relaxed to achieve convergence from 1.5086114177087471e-03 to 1.5086114177087571e-03 seconds.
Warning: Simulation tolerance relaxed to achieve convergence from 1.5086114177088271e-03 to 1.5086114177088371e-03 seconds.
Warning: Simulation tolerance relaxed to achieve convergence from 1.5086114177088870e-03 to 1.5086114177088970e-03 seconds.
Warning: Simulation tolerance relaxed to achieve convergence from 1.5086114177088970e-03 to 1.5086114177089069e-03 seconds.
Warning: Simulation tolerance relaxed to achieve convergence from 1.5086114177089069e-03 to 1.5086114177089169e-03 seconds.
Warning: Simulation tolerance relaxed to achieve convergence from 1.5086114177089369e-03 to 1.5086114177089468e-03 seconds.
Warning: Simulation tolerance relaxed to achieve convergence from 1.5086114177090568e-03 to 1.5086114177090668e-03 seconds.
Warning: Simulation tolerance relaxed to achieve convergence from 1.5086114177092669e-03 to 1.5086114177092769e-03 seconds.
Warning: Simulation tolerance relaxed to achieve convergence from 1.5086114177093369e-03 to 1.5086114177093469e-03 seconds.
Warning: Simulation tolerance relaxed to achieve convergence from 1.5086114177093469e-03 to 1.5086114177093569e-03 seconds.
Warning: Simulation tolerance relaxed to achieve convergence from 1.5086114177093569e-03 to 1.5086114177093669e-03 seconds.
Warning: Simulation tolerance relaxed to achieve convergence from 1.5086114177094367e-03 to 1.5086114177094467e-03 seconds.
Warning: Simulation tolerance relaxed to achieve convergence from 1.5086114177094467e-03 to 1.5086114177094566e-03 seconds.
Warning: Simulation tolerance relaxed to achieve convergence from 1.5086114177094566e-03 to 1.5086114177094666e-03 seconds.
Warning: Simulation tolerance relaxed to achieve convergence from 1.5086114177094965e-03 to 1.5086114177095065e-03 seconds.
Warning: Simulation tolerance relaxed to achieve convergence from 1.5086114177095165e-03 to 1.5086114177095265e-03 seconds.
Warning: Simulation tolerance relaxed to achieve convergence from 1.5086114177095564e-03 to 1.5086114177095664e-03 seconds.
Warning: Simulation tolerance relaxed to achieve convergence from 1.5086114177095664e-03 to 1.5086114177095763e-03 seconds.
Warning: Simulation tolerance relaxed to achieve convergence from 1.5086114177097563e-03 to 1.5086114177097663e-03 seconds.
Warning: Simulation tolerance relaxed to achieve convergence from 1.5086114177098263e-03 to 1.5086114177098363e-03 seconds.
Warning: Simulation tolerance relaxed to achieve convergence from 1.5086114177098563e-03 to 1.5086114177098662e-03 seconds.
Warning: Simulation tolerance relaxed to achieve convergence from 1.5086114177098862e-03 to 1.5086114177098962e-03 seconds.
Warning: Simulation tolerance relaxed to achieve convergence from 1.5086114177098962e-03 to 1.5086114177099061e-03 seconds.
Warning: Simulation tolerance relaxed to achieve convergence from 1.5086114177099261e-03 to 1.5086114177099361e-03 seconds.
Warning: Simulation tolerance relaxed to achieve convergence from 1.5689245199957758e-03 to 1.5689245199957858e-03 seconds.
Warning: Simulation tolerance relaxed to achieve convergence from 1.5689245199958157e-03 to 1.5689245199958257e-03 seconds.
Warning: Simulation tolerance relaxed to achieve convergence from 1.5689245199958556e-03 to 1.5689245199958656e-03 seconds.
Warning: Simulation tolerance relaxed to achieve convergence from 1.5689245199958955e-03 to 1.5689245199959055e-03 seconds.
Warning: Simulation tolerance relaxed to achieve convergence from 1.5764600503143384e-03 to 1.5764600503143484e-03 seconds.
Warning: Simulation tolerance relaxed to achieve convergence from 1.5764600503143684e-03 to 1.5764600503143783e-03 seconds.
Warning: Simulation tolerance relaxed to achieve convergence from 1.5764600503144083e-03 to 1.5764600503144182e-03 seconds.
Warning: Simulation tolerance relaxed to achieve convergence from 1.5764600503145182e-03 to 1.5764600503145282e-03 seconds.
Warning: Simulation tolerance relaxed to achieve convergence from 1.5764600503145980e-03 to 1.5764600503146080e-03 seconds.
Warning: Simulation tolerance relaxed to achieve convergence from 1.5764600503146780e-03 to 1.5764600503146880e-03 seconds.
Warning: Simulation tolerance relaxed to achieve convergence from 1.5764600503147379e-03 to 1.5764600503147478e-03 seconds.
Warning: Simulation tolerance relaxed to achieve convergence from 1.5764600503147678e-03 to 1.5764600503147777e-03 seconds.
Warning: Simulation tolerance relaxed to achieve convergence from 1.8101483182633572e-03 to 1.8101483182633672e-03 seconds.
Warning: Simulation tolerance relaxed to achieve convergence from 1.8101483182634273e-03 to 1.8101483182634372e-03 seconds.
Warning: Simulation tolerance relaxed to achieve convergence from 1.8101483182634472e-03 to 1.8101483182634572e-03 seconds.
Warning: Simulation tolerance relaxed to achieve convergence from 1.8101483182644674e-03 to 1.8101483182644774e-03 seconds.
Warning: Simulation tolerance relaxed to achieve convergence from 1.8101483182645073e-03 to 1.8101483182645173e-03 seconds.
Warning: Simulation tolerance relaxed to achieve convergence from 1.8101483182693474e-03 to 1.8101483182693574e-03 seconds.
Warning: Simulation tolerance relaxed to achieve convergence from 1.8478545620457577e-03 to 1.8478545620457677e-03 seconds.
Warning: Simulation tolerance relaxed to achieve convergence from 1.8478545620460478e-03 to 1.8478545620460578e-03 seconds.
Warning: Simulation tolerance relaxed to achieve convergence from 1.8478545620460977e-03 to 1.8478545620461077e-03 seconds.
Warning: Simulation tolerance relaxed to achieve convergence from 1.8478545620462777e-03 to 1.8478545620462877e-03 seconds.
Warning: Simulation tolerance relaxed to achieve convergence from 2.0136219328947065e-03 to 2.0136219328947165e-03 seconds.
Warning: Simulation tolerance relaxed to achieve convergence from 2.0136219328950361e-03 to 2.0136219328950461e-03 seconds.
Warning: Simulation tolerance relaxed to achieve convergence from 2.0136219328955362e-03 to 2.0136219328955461e-03 seconds.
Warning: Simulation tolerance relaxed to achieve convergence from 2.0136219328955461e-03 to 2.0136219328955561e-03 seconds.
Warning: Simulation tolerance relaxed to achieve convergence from 2.0136219329035692e-03 to 2.0136219329035792e-03 seconds.
Warning: Simulation tolerance relaxed to achieve convergence from 2.0136219329037193e-03 to 2.0136219329037293e-03 seconds.
Warning: Simulation tolerance relaxed to achieve convergence from 2.0136219329038888e-03 to 2.0136219329038988e-03 seconds.
Warning: Simulation tolerance relaxed to achieve convergence from 2.2624268414023394e-03 to 2.2624268414023494e-03 seconds.
Warning: Simulation tolerance relaxed to achieve convergence from 2.2624268414023494e-03 to 2.2624268414023594e-03 seconds.
Warning: Simulation tolerance relaxed to achieve convergence from 2.2624268414025094e-03 to 2.2624268414025194e-03 seconds.
Warning: Simulation tolerance relaxed to achieve convergence from 2.2624268414025493e-03 to 2.2624268414025593e-03 seconds.
Warning: Simulation tolerance relaxed to achieve convergence from 2.3830504392445230e-03 to 2.3830504392445329e-03 seconds.
Warning: Simulation tolerance relaxed to achieve convergence from 2.4056565427040748e-03 to 2.4056565427040847e-03 seconds.
Warning: Simulation tolerance relaxed to achieve convergence from 2.4056565427040847e-03 to 2.4056565427040947e-03 seconds.
Warning: Simulation tolerance relaxed to achieve convergence from 2.4056565427041246e-03 to 2.4056565427041346e-03 seconds.
Warning: Simulation tolerance relaxed to achieve convergence from 2.4358592618655664e-03 to 2.4358592618655764e-03 seconds.
Warning: Simulation tolerance relaxed to achieve convergence from 2.5338661147592464e-03 to 2.5338661147592564e-03 seconds.
Warning: Simulation tolerance relaxed to achieve convergence from 2.5338661147592764e-03 to 2.5338661147592863e-03 seconds.
Warning: Simulation tolerance relaxed to achieve convergence from 2.5338661147593362e-03 to 2.5338661147593462e-03 seconds.
Warning: Simulation tolerance relaxed to achieve convergence from 2.5338661147593462e-03 to 2.5338661147593562e-03 seconds.
Warning: Simulation tolerance relaxed to achieve convergence from 2.5338661147593961e-03 to 2.5338661147594060e-03 seconds.
Warning: Simulation tolerance relaxed to achieve convergence from 2.5338661147594260e-03 to 2.5338661147594360e-03 seconds.
Warning: Simulation tolerance relaxed to achieve convergence from 2.5338661147594360e-03 to 2.5338661147594459e-03 seconds.
Warning: Simulation tolerance relaxed to achieve convergence from 2.5338661147596858e-03 to 2.5338661147596957e-03 seconds.
Warning: Simulation tolerance relaxed to achieve convergence from 2.5338661147596957e-03 to 2.5338661147597057e-03 seconds.
Warning: Simulation tolerance relaxed to achieve convergence from 2.5338661147597356e-03 to 2.5338661147597456e-03 seconds.
Warning: Simulation tolerance relaxed to achieve convergence from 2.5338661147598454e-03 to 2.5338661147598553e-03 seconds.
Warning: Simulation tolerance relaxed to achieve convergence from 2.5338661147598553e-03 to 2.5338661147598653e-03 seconds.
Warning: Simulation tolerance relaxed to achieve convergence from 2.5338661147600249e-03 to 2.5338661147600349e-03 seconds.
Warning: Simulation tolerance relaxed to achieve convergence from 2.5338661147615250e-03 to 2.5338661147615350e-03 seconds.
Warning: Simulation tolerance relaxed to achieve convergence from 2.5338661147615549e-03 to 2.5338661147615649e-03 seconds.
Warning: Simulation tolerance relaxed to achieve convergence from 2.5338661147615649e-03 to 2.5338661147615749e-03 seconds.
Warning: Simulation tolerance relaxed to achieve convergence from 2.5338661147615749e-03 to 2.5338661147615849e-03 seconds.
Warning: Simulation tolerance relaxed to achieve convergence from 2.5338661147616846e-03 to 2.5338661147616946e-03 seconds.
Warning: Simulation tolerance relaxed to achieve convergence from 2.5338661147616946e-03 to 2.5338661147617045e-03 seconds.
Warning: Simulation tolerance relaxed to achieve convergence from 2.5338661147618043e-03 to 2.5338661147618143e-03 seconds.
Warning: Simulation tolerance relaxed to achieve convergence from 2.5338661147618941e-03 to 2.5338661147619040e-03 seconds.
Warning: Simulation tolerance relaxed to achieve convergence from 2.5338661147623243e-03 to 2.5338661147623343e-03 seconds.
Warning: Simulation tolerance relaxed to achieve convergence from 2.5338661147623343e-03 to 2.5338661147623442e-03 seconds.
Warning: Simulation tolerance relaxed to achieve convergence from 2.5338661147624141e-03 to 2.5338661147624240e-03 seconds.
Warning: Simulation tolerance relaxed to achieve convergence from 2.5338661147624839e-03 to 2.5338661147624938e-03 seconds.
Warning: Simulation tolerance relaxed to achieve convergence from 2.5338661147625936e-03 to 2.5338661147626036e-03 seconds.
Warning: Simulation tolerance relaxed to achieve convergence from 2.5338661147626036e-03 to 2.5338661147626135e-03 seconds.
Warning: Simulation tolerance relaxed to achieve convergence from 2.5338661147626335e-03 to 2.5338661147626435e-03 seconds.
Warning: Simulation tolerance relaxed to achieve convergence from 2.5338661147628035e-03 to 2.5338661147628135e-03 seconds.
Warning: Simulation tolerance relaxed to achieve convergence from 2.5338661147629635e-03 to 2.5338661147629735e-03 seconds.
Warning: Simulation tolerance relaxed to achieve convergence from 2.5338661147630034e-03 to 2.5338661147630134e-03 seconds.
Warning: Simulation tolerance relaxed to achieve convergence from 2.5338661147632333e-03 to 2.5338661147632432e-03 seconds.
Warning: Simulation tolerance relaxed to achieve convergence from 2.5338661147635629e-03 to 2.5338661147635728e-03 seconds.
Warning: Simulation tolerance relaxed to achieve convergence from 2.5338661147635728e-03 to 2.5338661147635828e-03 seconds.
Warning: Simulation tolerance relaxed to achieve convergence from 2.5338661147636726e-03 to 2.5338661147636826e-03 seconds.
Warning: Simulation tolerance relaxed to achieve convergence from 2.5338661147637025e-03 to 2.5338661147637125e-03 seconds.
Warning: Simulation tolerance relaxed to achieve convergence from 2.5338661147637324e-03 to 2.5338661147637424e-03 seconds.
Warning: Simulation tolerance relaxed to achieve convergence from 2.5338661147638023e-03 to 2.5338661147638122e-03 seconds.
Warning: Simulation tolerance relaxed to achieve convergence from 2.5338661147640122e-03 to 2.5338661147640221e-03 seconds.
Warning: Simulation tolerance relaxed to achieve convergence from 2.5338661147650222e-03 to 2.5338661147650322e-03 seconds.
Warning: Simulation tolerance relaxed to achieve convergence from 2.5338661147659126e-03 to 2.5338661147659225e-03 seconds.
Warning: Simulation tolerance relaxed to achieve convergence from 2.5338661147662226e-03 to 2.5338661147662326e-03 seconds.
Warning: Simulation tolerance relaxed to achieve convergence from 2.5338661147662825e-03 to 2.5338661147662925e-03 seconds.
Warning: Simulation tolerance relaxed to achieve convergence from 2.5338661147663124e-03 to 2.5338661147663224e-03 seconds.
Warning: Simulation tolerance relaxed to achieve convergence from 2.5338661147663224e-03 to 2.5338661147663324e-03 seconds.
Warning: Simulation tolerance relaxed to achieve convergence from 2.5338661147680727e-03 to 2.5338661147680827e-03 seconds.
Warning: Simulation tolerance relaxed to achieve convergence from 2.5338661147683828e-03 to 2.5338661147683928e-03 seconds.
Warning: Simulation tolerance relaxed to achieve convergence from 2.5338661147700729e-03 to 2.5338661147700828e-03 seconds.
Warning: Simulation tolerance relaxed to achieve convergence from 2.5338661147701028e-03 to 2.5338661147701128e-03 seconds.
Warning: Simulation tolerance relaxed to achieve convergence from 2.5338661147701427e-03 to 2.5338661147701527e-03 seconds.
Warning: Simulation tolerance relaxed to achieve convergence from 2.5338661147701527e-03 to 2.5338661147701626e-03 seconds.
Warning: Simulation tolerance relaxed to achieve convergence from 2.5338661147701826e-03 to 2.5338661147701926e-03 seconds.
Warning: Simulation tolerance relaxed to achieve convergence from 2.5338661147702125e-03 to 2.5338661147702225e-03 seconds.
Warning: Simulation tolerance relaxed to achieve convergence from 2.5338661147703821e-03 to 2.5338661147703920e-03 seconds.
Warning: Simulation tolerance relaxed to achieve convergence from 2.5338661147704120e-03 to 2.5338661147704220e-03 seconds.
Warning: Simulation tolerance relaxed to achieve convergence from 2.5338661147704220e-03 to 2.5338661147704319e-03 seconds.
Warning: Simulation tolerance relaxed to achieve convergence from 2.5338661147704319e-03 to 2.5338661147704419e-03 seconds.
Warning: Simulation tolerance relaxed to achieve convergence from 2.5338661147704419e-03 to 2.5338661147704519e-03 seconds.
Warning: Simulation tolerance relaxed to achieve convergence from 2.5338661147706015e-03 to 2.5338661147706115e-03 seconds.
Warning: Simulation tolerance relaxed to achieve convergence from 2.5338661147706314e-03 to 2.5338661147706414e-03 seconds.
Warning: Simulation tolerance relaxed to achieve convergence from 2.5338661147706414e-03 to 2.5338661147706514e-03 seconds.
Warning: Simulation tolerance relaxed to achieve convergence from 2.5338661147707212e-03 to 2.5338661147707312e-03 seconds.
Warning: Simulation tolerance relaxed to achieve convergence from 2.5338661147707611e-03 to 2.5338661147707711e-03 seconds.
Warning: Simulation tolerance relaxed to achieve convergence from 2.6092493761627296e-03 to 2.6092493761627395e-03 seconds.
Warning: Simulation tolerance relaxed to achieve convergence from 2.6092493761627794e-03 to 2.6092493761627894e-03 seconds.
Warning: Simulation tolerance relaxed to achieve convergence from 2.7222847076411789e-03 to 2.7222847076411889e-03 seconds.
Warning: Simulation tolerance relaxed to achieve convergence from 2.7222847076411889e-03 to 2.7222847076411988e-03 seconds.
Warning: Simulation tolerance relaxed to achieve convergence from 2.7222847076412886e-03 to 2.7222847076412986e-03 seconds.
Warning: Simulation tolerance relaxed to achieve convergence from 2.7222847076413983e-03 to 2.7222847076414083e-03 seconds.
Warning: Simulation tolerance relaxed to achieve convergence from 2.7222847076415081e-03 to 2.7222847076415180e-03 seconds.
Warning: Simulation tolerance relaxed to achieve convergence from 2.7222847076415679e-03 to 2.7222847076415779e-03 seconds.
Warning: Simulation tolerance relaxed to achieve convergence from 2.7222847076416178e-03 to 2.7222847076416277e-03 seconds.
Warning: Simulation tolerance relaxed to achieve convergence from 2.7222847076416676e-03 to 2.7222847076416776e-03 seconds.
Warning: Simulation tolerance relaxed to achieve convergence from 2.7222847076416776e-03 to 2.7222847076416876e-03 seconds.
Warning: Simulation tolerance relaxed to achieve convergence from 2.7222847076424977e-03 to 2.7222847076425077e-03 seconds.
Warning: Simulation tolerance relaxed to achieve convergence from 2.7222847076425276e-03 to 2.7222847076425376e-03 seconds.
Warning: Simulation tolerance relaxed to achieve convergence from 2.7222847076429175e-03 to 2.7222847076429275e-03 seconds.
Warning: Simulation tolerance relaxed to achieve convergence from 2.7222847076429774e-03 to 2.7222847076429873e-03 seconds.
Warning: Simulation tolerance relaxed to achieve convergence from 2.7222847076430871e-03 to 2.7222847076430971e-03 seconds.
Warning: Simulation tolerance relaxed to achieve convergence from 2.7222847076431270e-03 to 2.7222847076431370e-03 seconds.
Warning: Simulation tolerance relaxed to achieve convergence from 2.7222847076431370e-03 to 2.7222847076431469e-03 seconds.
Warning: Simulation tolerance relaxed to achieve convergence from 2.7222847076434167e-03 to 2.7222847076434267e-03 seconds.
Warning: Simulation tolerance relaxed to achieve convergence from 2.7222847076441166e-03 to 2.7222847076441266e-03 seconds.
Warning: Simulation tolerance relaxed to achieve convergence from 2.7222847076442966e-03 to 2.7222847076443066e-03 seconds.
Warning: Simulation tolerance relaxed to achieve convergence from 2.7222847076443166e-03 to 2.7222847076443265e-03 seconds.
Warning: Simulation tolerance relaxed to achieve convergence from 2.7222847076443265e-03 to 2.7222847076443365e-03 seconds.
Warning: Simulation tolerance relaxed to achieve convergence from 2.7222847076446466e-03 to 2.7222847076446566e-03 seconds.
Warning: Simulation tolerance relaxed to achieve convergence from 2.7222847076447264e-03 to 2.7222847076447364e-03 seconds.
Warning: Simulation tolerance relaxed to achieve convergence from 2.7222847076447364e-03 to 2.7222847076447463e-03 seconds.
Warning: Simulation tolerance relaxed to achieve convergence from 2.7222847076448864e-03 to 2.7222847076448964e-03 seconds.
Warning: Simulation tolerance relaxed to achieve convergence from 2.7222847076449064e-03 to 2.7222847076449164e-03 seconds.
Warning: Simulation tolerance relaxed to achieve convergence from 2.7222847076450161e-03 to 2.7222847076450261e-03 seconds.
Warning: Simulation tolerance relaxed to achieve convergence from 2.7222847076450261e-03 to 2.7222847076450360e-03 seconds.
Warning: Simulation tolerance relaxed to achieve convergence from 2.7222847076450360e-03 to 2.7222847076450460e-03 seconds.
Warning: Simulation tolerance relaxed to achieve convergence from 2.7222847076451358e-03 to 2.7222847076451458e-03 seconds.
Warning: Simulation tolerance relaxed to achieve convergence from 2.7222847076451657e-03 to 2.7222847076451757e-03 seconds.
Warning: Simulation tolerance relaxed to achieve convergence from 2.7222847076451956e-03 to 2.7222847076452056e-03 seconds.
Warning: Simulation tolerance relaxed to achieve convergence from 2.7222847076452854e-03 to 2.7222847076452954e-03 seconds.
Warning: Simulation tolerance relaxed to achieve convergence from 2.7222847076453054e-03 to 2.7222847076453153e-03 seconds.
Warning: Simulation tolerance relaxed to achieve convergence from 2.7222847076455049e-03 to 2.7222847076455148e-03 seconds.
Warning: Simulation tolerance relaxed to achieve convergence from 2.7222847076456046e-03 to 2.7222847076456146e-03 seconds.
Warning: Simulation tolerance relaxed to achieve convergence from 2.7222847076456345e-03 to 2.7222847076456445e-03 seconds.
Warning: Simulation tolerance relaxed to achieve convergence from 2.7222847076456545e-03 to 2.7222847076456645e-03 seconds.
Warning: Simulation tolerance relaxed to achieve convergence from 2.7222847076456645e-03 to 2.7222847076456744e-03 seconds.
Warning: Simulation tolerance relaxed to achieve convergence from 2.7222847076456744e-03 to 2.7222847076456844e-03 seconds.
Warning: Simulation tolerance relaxed to achieve convergence from 2.7222847076457043e-03 to 2.7222847076457143e-03 seconds.
Warning: Simulation tolerance relaxed to achieve convergence from 2.7222847076458939e-03 to 2.7222847076459038e-03 seconds.
Warning: Simulation tolerance relaxed to achieve convergence from 2.7222847076459238e-03 to 2.7222847076459338e-03 seconds.
Warning: Simulation tolerance relaxed to achieve convergence from 2.7222847076459338e-03 to 2.7222847076459437e-03 seconds.
Warning: Simulation tolerance relaxed to achieve convergence from 2.7222847076459437e-03 to 2.7222847076459537e-03 seconds.
Warning: Simulation tolerance relaxed to achieve convergence from 2.7222847076459537e-03 to 2.7222847076459637e-03 seconds.
Warning: Simulation tolerance relaxed to achieve convergence from 2.7222847076461437e-03 to 2.7222847076461536e-03 seconds.
Warning: Simulation tolerance relaxed to achieve convergence from 2.7222847076461536e-03 to 2.7222847076461636e-03 seconds.
Warning: Simulation tolerance relaxed to achieve convergence from 2.7222847076461636e-03 to 2.7222847076461736e-03 seconds.
Warning: Simulation tolerance relaxed to achieve convergence from 2.7222847076469538e-03 to 2.7222847076469638e-03 seconds.
Warning: Simulation tolerance relaxed to achieve convergence from 2.7222847076477739e-03 to 2.7222847076477838e-03 seconds.
Warning: Simulation tolerance relaxed to achieve convergence from 2.7222847076479239e-03 to 2.7222847076479339e-03 seconds.
Warning: Simulation tolerance relaxed to achieve convergence from 2.7222847076479938e-03 to 2.7222847076480037e-03 seconds.
Warning: Simulation tolerance relaxed to achieve convergence from 2.7222847076505590e-03 to 2.7222847076505689e-03 seconds.
Warning: Simulation tolerance relaxed to achieve convergence from 2.7222847076506088e-03 to 2.7222847076506188e-03 seconds.
Warning: Simulation tolerance relaxed to achieve convergence from 2.7222847076527720e-03 to 2.7222847076527820e-03 seconds.
Warning: Simulation tolerance relaxed to achieve convergence from 2.7222847076527820e-03 to 2.7222847076527920e-03 seconds.
Warning: Simulation tolerance relaxed to achieve convergence from 2.7222847076527920e-03 to 2.7222847076528020e-03 seconds.
Warning: Simulation tolerance relaxed to achieve convergence from 2.7222847076528818e-03 to 2.7222847076529117e-03 seconds.
Warning: Simulation tolerance relaxed to achieve convergence from 2.7298031900584783e-03 to 2.7298031900584883e-03 seconds.
Warning: Simulation tolerance relaxed to achieve convergence from 2.7298031900585482e-03 to 2.7298031900585581e-03 seconds.
Warning: Simulation tolerance relaxed to achieve convergence from 2.7298031900585881e-03 to 2.7298031900585980e-03 seconds.
Warning: Simulation tolerance relaxed to achieve convergence from 2.7298031900591883e-03 to 2.7298031900591982e-03 seconds.
Warning: Simulation tolerance relaxed to achieve convergence from 2.7298031900596480e-03 to 2.7298031900596579e-03 seconds.
Warning: Simulation tolerance relaxed to achieve convergence from 2.7298031900596779e-03 to 2.7298031900596879e-03 seconds.
Warning: Simulation tolerance relaxed to achieve convergence from 2.7298031900597477e-03 to 2.7298031900597577e-03 seconds.
Warning: Simulation tolerance relaxed to achieve convergence from 2.7298031900597577e-03 to 2.7298031900597677e-03 seconds.
Warning: Simulation tolerance relaxed to achieve convergence from 2.7298031900597976e-03 to 2.7298031900598076e-03 seconds.
Warning: Simulation tolerance relaxed to achieve convergence from 2.8051755497783852e-03 to 2.8051755497783951e-03 seconds.
Warning: Simulation tolerance relaxed to achieve convergence from 2.8051755497783951e-03 to 2.8051755497784051e-03 seconds.
Warning: Simulation tolerance relaxed to achieve convergence from 2.8051755497784051e-03 to 2.8051755497784151e-03 seconds.
Warning: Simulation tolerance relaxed to achieve convergence from 2.8051755497784151e-03 to 2.8051755497784251e-03 seconds.
Warning: Simulation tolerance relaxed to achieve convergence from 2.8051755497785248e-03 to 2.8051755497785348e-03 seconds.
Warning: Simulation tolerance relaxed to achieve convergence from 2.8051755497785647e-03 to 2.8051755497785747e-03 seconds.
Warning: Simulation tolerance relaxed to achieve convergence from 2.8051755497785747e-03 to 2.8051755497785847e-03 seconds.
Warning: Simulation tolerance relaxed to achieve convergence from 2.8051755497785847e-03 to 2.8051755497785946e-03 seconds.
Warning: Simulation tolerance relaxed to achieve convergence from 2.8051755497786146e-03 to 2.8051755497786246e-03 seconds.
Warning: Simulation tolerance relaxed to achieve convergence from 2.8051755497786246e-03 to 2.8051755497786345e-03 seconds.
Warning: Simulation tolerance relaxed to achieve convergence from 2.8051755497786744e-03 to 2.8051755497786844e-03 seconds.
Warning: Simulation tolerance relaxed to achieve convergence from 2.8051755497787143e-03 to 2.8051755497787243e-03 seconds.
Warning: Simulation tolerance relaxed to achieve convergence from 2.8051755497787443e-03 to 2.8051755497787542e-03 seconds.
Warning: Simulation tolerance relaxed to achieve convergence from 2.8051755497788141e-03 to 2.8051755497788241e-03 seconds.
Warning: Simulation tolerance relaxed to achieve convergence from 2.8051755497788839e-03 to 2.8051755497788939e-03 seconds.
Warning: Simulation tolerance relaxed to achieve convergence from 2.8051755497788939e-03 to 2.8051755497789039e-03 seconds.
Warning: Simulation tolerance relaxed to achieve convergence from 2.8051755497789039e-03 to 2.8051755497789138e-03 seconds.
Warning: Simulation tolerance relaxed to achieve convergence from 2.8051755497790639e-03 to 2.8051755497790739e-03 seconds.
Warning: Simulation tolerance relaxed to achieve convergence from 2.8051755497790938e-03 to 2.8051755497791038e-03 seconds.
Warning: Simulation tolerance relaxed to achieve convergence from 2.8051755497791437e-03 to 2.8051755497791537e-03 seconds.
Warning: Simulation tolerance relaxed to achieve convergence from 2.8051755497791537e-03 to 2.8051755497791636e-03 seconds.
Warning: Simulation tolerance relaxed to achieve convergence from 2.8051755497792833e-03 to 2.8051755497792933e-03 seconds.
Warning: Simulation tolerance relaxed to achieve convergence from 2.8051755497793133e-03 to 2.8051755497793232e-03 seconds.
Warning: Simulation tolerance relaxed to achieve convergence from 2.8051755497793731e-03 to 2.8051755497793831e-03 seconds.
Warning: Simulation tolerance relaxed to achieve convergence from 2.8051755497793831e-03 to 2.8051755497793930e-03 seconds.
Warning: Simulation tolerance relaxed to achieve convergence from 2.8051755497794230e-03 to 2.8051755497794329e-03 seconds.
Warning: Simulation tolerance relaxed to achieve convergence from 2.8051755497794928e-03 to 2.8051755497795028e-03 seconds.
Warning: Simulation tolerance relaxed to achieve convergence from 2.8051755497795227e-03 to 2.8051755497795327e-03 seconds.
Warning: Simulation tolerance relaxed to achieve convergence from 2.8051755497795526e-03 to 2.8051755497795626e-03 seconds.
Warning: Simulation tolerance relaxed to achieve convergence from 2.8051755497797127e-03 to 2.8051755497797226e-03 seconds.
Warning: Simulation tolerance relaxed to achieve convergence from 2.8051755497797226e-03 to 2.8051755497797326e-03 seconds.
Warning: Simulation tolerance relaxed to achieve convergence from 2.8051755497801524e-03 to 2.8051755497801624e-03 seconds.
Warning: Simulation tolerance relaxed to achieve convergence from 2.9106221733132963e-03 to 2.9106221733133063e-03 seconds.
Warning: Simulation tolerance relaxed to achieve convergence from 2.9106221733133163e-03 to 2.9106221733133262e-03 seconds.
Warning: Simulation tolerance relaxed to achieve convergence from 2.9106221733134659e-03 to 2.9106221733134758e-03 seconds.
Warning: Simulation tolerance relaxed to achieve convergence from 2.9106221733134858e-03 to 2.9106221733134958e-03 seconds.
Warning: Simulation tolerance relaxed to achieve convergence from 2.9106221733135457e-03 to 2.9106221733135556e-03 seconds.
Warning: Simulation tolerance relaxed to achieve convergence from 2.9106221733135556e-03 to 2.9106221733135656e-03 seconds.
Warning: Simulation tolerance relaxed to achieve convergence from 2.9106221733136753e-03 to 2.9106221733136853e-03 seconds.
Warning: Simulation tolerance relaxed to achieve convergence from 2.9106221733136853e-03 to 2.9106221733136953e-03 seconds.
Warning: Simulation tolerance relaxed to achieve convergence from 2.9106221733137053e-03 to 2.9106221733137152e-03 seconds.
Warning: Simulation tolerance relaxed to achieve convergence from 2.9106221733137152e-03 to 2.9106221733137252e-03 seconds.
Warning: Simulation tolerance relaxed to achieve convergence from 2.9106221733137651e-03 to 2.9106221733137751e-03 seconds.
Warning: Simulation tolerance relaxed to achieve convergence from 2.9106221733138649e-03 to 2.9106221733138748e-03 seconds.
Warning: Simulation tolerance relaxed to achieve convergence from 2.9106221733138748e-03 to 2.9106221733138848e-03 seconds.
Warning: Simulation tolerance relaxed to achieve convergence from 2.9106221733139048e-03 to 2.9106221733139147e-03 seconds.
Warning: Simulation tolerance relaxed to achieve convergence from 2.9106221733139247e-03 to 2.9106221733139347e-03 seconds.
Warning: Simulation tolerance relaxed to achieve convergence from 3.0914645576120459e-03 to 3.0914645576120559e-03 seconds.
Warning: Simulation tolerance relaxed to achieve convergence from 3.0914645576120559e-03 to 3.0914645576120658e-03 seconds.
Warning: Simulation tolerance relaxed to achieve convergence from 3.0914645576121656e-03 to 3.0914645576121755e-03 seconds.
Warning: Simulation tolerance relaxed to achieve convergence from 3.0914645576122154e-03 to 3.0914645576122254e-03 seconds.
Warning: Simulation tolerance relaxed to achieve convergence from 3.0914645576122254e-03 to 3.0914645576122354e-03 seconds.
Warning: Simulation tolerance relaxed to achieve convergence from 3.0914645576122454e-03 to 3.0914645576122553e-03 seconds.
Warning: Simulation tolerance relaxed to achieve convergence from 3.0914645576122853e-03 to 3.0914645576122952e-03 seconds.
Warning: Simulation tolerance relaxed to achieve convergence from 3.0914645576123252e-03 to 3.0914645576123351e-03 seconds.
Warning: Simulation tolerance relaxed to achieve convergence from 3.1969703615132034e-03 to 3.1969703615132134e-03 seconds.
Warning: Simulation tolerance relaxed to achieve convergence from 3.1969703615132732e-03 to 3.1969703615132832e-03 seconds.
Warning: Simulation tolerance relaxed to achieve convergence from 3.1969703615132832e-03 to 3.1969703615132932e-03 seconds.
Warning: Simulation tolerance relaxed to achieve convergence from 3.1969703615132932e-03 to 3.1969703615133032e-03 seconds.
Warning: Simulation tolerance relaxed to achieve convergence from 3.2723099296553381e-03 to 3.2723099296553481e-03 seconds.
Warning: Simulation tolerance relaxed to achieve convergence from 3.2723099296553780e-03 to 3.2723099296553880e-03 seconds.
Warning: Simulation tolerance relaxed to achieve convergence from 3.2723099296557380e-03 to 3.2723099296557479e-03 seconds.
Warning: Simulation tolerance relaxed to achieve convergence from 3.2723099296557479e-03 to 3.2723099296557579e-03 seconds.
Warning: Simulation tolerance relaxed to achieve convergence from 3.2723099296569683e-03 to 3.2723099296569783e-03 seconds.
Warning: Simulation tolerance relaxed to achieve convergence from 3.3099979048655803e-03 to 3.3099979048655903e-03 seconds.
Warning: Simulation tolerance relaxed to achieve convergence from 3.3099979048668107e-03 to 3.3099979048668206e-03 seconds.
Warning: Simulation tolerance relaxed to achieve convergence from 3.3099979048668905e-03 to 3.3099979048669004e-03 seconds.
Warning: Simulation tolerance relaxed to achieve convergence from 3.3099979048669204e-03 to 3.3099979048669304e-03 seconds.
Warning: Simulation tolerance relaxed to achieve convergence from 3.4456150967047796e-03 to 3.4456150967047895e-03 seconds.
Warning: Simulation tolerance relaxed to achieve convergence from 3.4456150967049491e-03 to 3.4456150967049591e-03 seconds.
Warning: Simulation tolerance relaxed to achieve convergence from 3.4456150967049591e-03 to 3.4456150967049691e-03 seconds.
Warning: Simulation tolerance relaxed to achieve convergence from 3.4456150967049691e-03 to 3.4456150967049791e-03 seconds.
Warning: Simulation tolerance relaxed to achieve convergence from 3.4456150967054392e-03 to 3.4456150967054492e-03 seconds.
Warning: Simulation tolerance relaxed to achieve convergence from 3.4456150967055190e-03 to 3.4456150967055290e-03 seconds.
Warning: Simulation tolerance relaxed to achieve convergence from 3.4456150967062493e-03 to 3.4456150967062593e-03 seconds.
Warning: Simulation tolerance relaxed to achieve convergence from 3.4682399241001099e-03 to 3.4682399241001199e-03 seconds.
Warning: Simulation tolerance relaxed to achieve convergence from 3.4682399241001199e-03 to 3.4682399241001299e-03 seconds.
Warning: Simulation tolerance relaxed to achieve convergence from 3.4682399241001299e-03 to 3.4682399241001399e-03 seconds.
Warning: Simulation tolerance relaxed to achieve convergence from 3.4682399241001399e-03 to 3.4682399241001498e-03 seconds.
Warning: Simulation tolerance relaxed to achieve convergence from 3.4682399241008398e-03 to 3.4682399241008498e-03 seconds.
Warning: Simulation tolerance relaxed to achieve convergence from 3.4682399241008697e-03 to 3.4682399241008797e-03 seconds.
Warning: Simulation tolerance relaxed to achieve convergence from 3.4682399241008797e-03 to 3.4682399241008897e-03 seconds.
Warning: Simulation tolerance relaxed to achieve convergence from 3.4682399241011898e-03 to 3.4682399241011998e-03 seconds.
Warning: Simulation tolerance relaxed to achieve convergence from 3.4682399241011998e-03 to 3.4682399241012097e-03 seconds.
Warning: Simulation tolerance relaxed to achieve convergence from 3.4682399241012097e-03 to 3.4682399241012197e-03 seconds.
Warning: Simulation tolerance relaxed to achieve convergence from 3.4682399241013893e-03 to 3.4682399241013993e-03 seconds.
Warning: Simulation tolerance relaxed to achieve convergence from 3.5436421107262603e-03 to 3.5436421107262702e-03 seconds.
Warning: Simulation tolerance relaxed to achieve convergence from 3.5436421107263201e-03 to 3.5436421107263301e-03 seconds.
Warning: Simulation tolerance relaxed to achieve convergence from 3.5436421107267299e-03 to 3.5436421107267399e-03 seconds.
Warning: Simulation tolerance relaxed to achieve convergence from 3.5436421107267998e-03 to 3.5436421107268097e-03 seconds.
Warning: Simulation tolerance relaxed to achieve convergence from 3.5436421107268097e-03 to 3.5436421107268197e-03 seconds.
Warning: Simulation tolerance relaxed to achieve convergence from 3.5436421107270196e-03 to 3.5436421107270296e-03 seconds.
Warning: Simulation tolerance relaxed to achieve convergence from 3.5436421107270396e-03 to 3.5436421107270496e-03 seconds.
Warning: Simulation tolerance relaxed to achieve convergence from 3.5436421107270894e-03 to 3.5436421107270994e-03 seconds.
Warning: Simulation tolerance relaxed to achieve convergence from 3.5436421107270994e-03 to 3.5436421107271094e-03 seconds.
Warning: Simulation tolerance relaxed to achieve convergence from 3.5436421107273995e-03 to 3.5436421107274095e-03 seconds.
Warning: Simulation tolerance relaxed to achieve convergence from 3.5436421107274694e-03 to 3.5436421107274793e-03 seconds.
Warning: Simulation tolerance relaxed to achieve convergence from 3.5738415381209566e-03 to 3.5738415381209665e-03 seconds.
Warning: Simulation tolerance relaxed to achieve convergence from 3.5738415381209665e-03 to 3.5738415381209765e-03 seconds.
Warning: Simulation tolerance relaxed to achieve convergence from 3.5738415381209765e-03 to 3.5738415381209865e-03 seconds.
Warning: Simulation tolerance relaxed to achieve convergence from 3.5738415381209965e-03 to 3.5738415381210064e-03 seconds.
Warning: Simulation tolerance relaxed to achieve convergence from 3.6566688349500939e-03 to 3.6566688349501039e-03 seconds.
Warning: Simulation tolerance relaxed to achieve convergence from 3.6566688349501338e-03 to 3.6566688349501438e-03 seconds.
Warning: Simulation tolerance relaxed to achieve convergence from 3.6566688349501438e-03 to 3.6566688349501538e-03 seconds.
Warning: Simulation tolerance relaxed to achieve convergence from 3.6566688349513720e-03 to 3.6566688349513820e-03 seconds.
Warning: Simulation tolerance relaxed to achieve convergence from 3.6566688349513820e-03 to 3.6566688349513920e-03 seconds.
Warning: Simulation tolerance relaxed to achieve convergence from 4.0488168372198501e-03 to 4.0488168372198605e-03 seconds.
Warning: Simulation tolerance relaxed to achieve convergence from 4.0488168372200010e-03 to 4.0488168372200114e-03 seconds.
Warning: Simulation tolerance relaxed to achieve convergence from 4.0488168372200418e-03 to 4.0488168372200522e-03 seconds.
Warning: Simulation tolerance relaxed to achieve convergence from 4.0488168372200626e-03 to 4.0488168372200730e-03 seconds.
Warning: Simulation tolerance relaxed to achieve convergence from 4.0488168372200730e-03 to 4.0488168372200834e-03 seconds.
Warning: Simulation tolerance relaxed to achieve convergence from 4.0488168372201138e-03 to 4.0488168372201242e-03 seconds.
Warning: Simulation tolerance relaxed to achieve convergence from 4.1542474771647771e-03 to 4.1542474771647875e-03 seconds.
Warning: Simulation tolerance relaxed to achieve convergence from 4.1542474771647875e-03 to 4.1542474771647979e-03 seconds.
Warning: Simulation tolerance relaxed to achieve convergence from 4.1542474771647979e-03 to 4.1542474771648083e-03 seconds.
Warning: Simulation tolerance relaxed to achieve convergence from 4.1542474771648387e-03 to 4.1542474771648491e-03 seconds.
Warning: Simulation tolerance relaxed to achieve convergence from 4.1542474771648899e-03 to 4.1542474771649003e-03 seconds.
Warning: Simulation tolerance relaxed to achieve convergence from 4.1542474771655204e-03 to 4.1542474771655308e-03 seconds.
Warning: Simulation tolerance relaxed to achieve convergence from 4.1542474771660140e-03 to 4.1542474771660244e-03 seconds.
Warning: Simulation tolerance relaxed to achieve convergence from 4.1542474771660244e-03 to 4.1542474771660348e-03 seconds.
Warning: Simulation tolerance relaxed to achieve convergence from 4.1542474771665257e-03 to 4.1542474771665361e-03 seconds.
Warning: Simulation tolerance relaxed to achieve convergence from 4.1542474771665561e-03 to 4.1542474771665665e-03 seconds.
Warning: Simulation tolerance relaxed to achieve convergence from 4.1542474771674078e-03 to 4.1542474771674182e-03 seconds.
Warning: Simulation tolerance relaxed to achieve convergence from 4.1542474771674789e-03 to 4.1542474771674893e-03 seconds.
Warning: Simulation tolerance relaxed to achieve convergence from 4.1542474771674893e-03 to 4.1542474771674998e-03 seconds.
Warning: Simulation tolerance relaxed to achieve convergence from 4.1542474771674998e-03 to 4.1542474771675102e-03 seconds.
Warning: Simulation tolerance relaxed to achieve convergence from 4.1542474771676333e-03 to 4.1542474771676437e-03 seconds.
Warning: Simulation tolerance relaxed to achieve convergence from 4.1542474771677834e-03 to 4.1542474771677938e-03 seconds.
Warning: Simulation tolerance relaxed to achieve convergence from 4.1542474771678640e-03 to 4.1542474771678745e-03 seconds.
Warning: Simulation tolerance relaxed to achieve convergence from 4.1542474771678944e-03 to 4.1542474771679048e-03 seconds.
Warning: Simulation tolerance relaxed to achieve convergence from 4.1542474771686247e-03 to 4.1542474771686351e-03 seconds.
Warning: Simulation tolerance relaxed to achieve convergence from 4.1542474771686351e-03 to 4.1542474771686455e-03 seconds.
Warning: Simulation tolerance relaxed to achieve convergence from 4.1542474771688659e-03 to 4.1542474771688763e-03 seconds.
Warning: Simulation tolerance relaxed to achieve convergence from 4.1542474771688763e-03 to 4.1542474771688867e-03 seconds.
Warning: Simulation tolerance relaxed to achieve convergence from 4.1542474771689170e-03 to 4.1542474771689274e-03 seconds.
Warning: Simulation tolerance relaxed to achieve convergence from 4.1542474771689578e-03 to 4.1542474771689682e-03 seconds.
Warning: Simulation tolerance relaxed to achieve convergence from 4.1542474771693802e-03 to 4.1542474771693906e-03 seconds.
Warning: Simulation tolerance relaxed to achieve convergence from 4.1542474771693906e-03 to 4.1542474771694010e-03 seconds.
Warning: Simulation tolerance relaxed to achieve convergence from 4.1542474771694010e-03 to 4.1542474771694114e-03 seconds.
Warning: Simulation tolerance relaxed to achieve convergence from 4.1542474771694314e-03 to 4.1542474771694418e-03 seconds.
Warning: Simulation tolerance relaxed to achieve convergence from 4.1542474771695745e-03 to 4.1542474771695849e-03 seconds.
Warning: Simulation tolerance relaxed to achieve convergence from 4.1542474771695953e-03 to 4.1542474771696057e-03 seconds.
Warning: Simulation tolerance relaxed to achieve convergence from 4.1542474771702259e-03 to 4.1542474771702363e-03 seconds.
Warning: Simulation tolerance relaxed to achieve convergence from 4.1542474771702363e-03 to 4.1542474771702467e-03 seconds.
Warning: Simulation tolerance relaxed to achieve convergence from 4.1542474771703768e-03 to 4.1542474771703872e-03 seconds.
Warning: Simulation tolerance relaxed to achieve convergence from 4.1542474771705971e-03 to 4.1542474771706075e-03 seconds.
Warning: Simulation tolerance relaxed to achieve convergence from 4.1542474771706075e-03 to 4.1542474771706179e-03 seconds.
Warning: Simulation tolerance relaxed to achieve convergence from 4.1542474771707185e-03 to 4.1542474771707289e-03 seconds.
Warning: Simulation tolerance relaxed to achieve convergence from 4.1542474771709198e-03 to 4.1542474771709302e-03 seconds.
Warning: Simulation tolerance relaxed to achieve convergence from 4.1542474771713491e-03 to 4.1542474771713595e-03 seconds.
Warning: Simulation tolerance relaxed to achieve convergence from 4.1542474771714298e-03 to 4.1542474771714402e-03 seconds.
Warning: Simulation tolerance relaxed to achieve convergence from 4.1542474771714809e-03 to 4.1542474771714914e-03 seconds.
Warning: Simulation tolerance relaxed to achieve convergence from 4.1542474771714914e-03 to 4.1542474771715018e-03 seconds.
Warning: Simulation tolerance relaxed to achieve convergence from 4.1542474771716527e-03 to 4.1542474771716631e-03 seconds.
Warning: Simulation tolerance relaxed to achieve convergence from 4.1542474771718626e-03 to 4.1542474771718730e-03 seconds.
Warning: Simulation tolerance relaxed to achieve convergence from 4.1542474771721731e-03 to 4.1542474771721835e-03 seconds.
Warning: Simulation tolerance relaxed to achieve convergence from 4.1542474771723145e-03 to 4.1542474771723249e-03 seconds.
Warning: Simulation tolerance relaxed to achieve convergence from 4.3276016120617437e-03 to 4.3276016120617541e-03 seconds.
Warning: Simulation tolerance relaxed to achieve convergence from 4.3276016120617740e-03 to 4.3276016120617844e-03 seconds.
Warning: Simulation tolerance relaxed to achieve convergence from 4.3276016120618963e-03 to 4.3276016120619067e-03 seconds.
Warning: Simulation tolerance relaxed to achieve convergence from 4.3276016120619770e-03 to 4.3276016120619874e-03 seconds.
Warning: Simulation tolerance relaxed to achieve convergence from 4.4029902843202781e-03 to 4.4029902843202885e-03 seconds.
Warning: Simulation tolerance relaxed to achieve convergence from 4.4029902843203692e-03 to 4.4029902843203796e-03 seconds.
Warning: Simulation tolerance relaxed to achieve convergence from 4.4029902843204004e-03 to 4.4029902843204108e-03 seconds.
Warning: Simulation tolerance relaxed to achieve convergence from 4.4029902843204516e-03 to 4.4029902843204620e-03 seconds.
Warning: Simulation tolerance relaxed to achieve convergence from 4.4029902843206728e-03 to 4.4029902843206832e-03 seconds.
Warning: Simulation tolerance relaxed to achieve convergence from 4.4029902843206936e-03 to 4.4029902843207040e-03 seconds.
Warning: Simulation tolerance relaxed to achieve convergence from 4.4180613612473767e-03 to 4.4180613612473871e-03 seconds.
Warning: Simulation tolerance relaxed to achieve convergence from 4.4180613612474278e-03 to 4.4180613612474382e-03 seconds.
Warning: Simulation tolerance relaxed to achieve convergence from 4.4180613612474382e-03 to 4.4180613612474487e-03 seconds.
Warning: Simulation tolerance relaxed to achieve convergence from 4.5311608557077609e-03 to 4.5311608557077714e-03 seconds.
Warning: Simulation tolerance relaxed to achieve convergence from 4.5311608557081521e-03 to 4.5311608557081625e-03 seconds.
Warning: Simulation tolerance relaxed to achieve convergence from 4.5311608557081625e-03 to 4.5311608557081729e-03 seconds.
Warning: Simulation tolerance relaxed to achieve convergence from 4.5311608557082536e-03 to 4.5311608557082640e-03 seconds.
Warning: Simulation tolerance relaxed to achieve convergence from 4.5311608557082944e-03 to 4.5311608557083048e-03 seconds.
Warning: Simulation tolerance relaxed to achieve convergence from 4.5311608557083048e-03 to 4.5311608557083152e-03 seconds.
Warning: Simulation tolerance relaxed to achieve convergence from 4.5311608557083152e-03 to 4.5311608557083256e-03 seconds.
Warning: Simulation tolerance relaxed to achieve convergence from 4.7195797655161182e-03 to 4.7195797655161286e-03 seconds.
Warning: Simulation tolerance relaxed to achieve convergence from 4.7195797655163688e-03 to 4.7195797655163792e-03 seconds.
Warning: Simulation tolerance relaxed to achieve convergence from 4.7195797655163792e-03 to 4.7195797655163896e-03 seconds.
Warning: Simulation tolerance relaxed to achieve convergence from 4.7195797655163896e-03 to 4.7195797655164001e-03 seconds.
Warning: Simulation tolerance relaxed to achieve convergence from 4.7195797655164001e-03 to 4.7195797655164105e-03 seconds.
Warning: Simulation tolerance relaxed to achieve convergence from 4.7195797655164105e-03 to 4.7195797655164209e-03 seconds.
Warning: Simulation tolerance relaxed to achieve convergence from 4.7195797655164313e-03 to 4.7195797655164417e-03 seconds.
Warning: Simulation tolerance relaxed to achieve convergence from 4.8779768340729739e-03 to 4.8779768340729843e-03 seconds.
Warning: Simulation tolerance relaxed to achieve convergence from 4.8779768340730147e-03 to 4.8779768340730251e-03 seconds.
Warning: Simulation tolerance relaxed to achieve convergence from 4.8779768340730355e-03 to 4.8779768340730459e-03 seconds.
Warning: Simulation tolerance relaxed to achieve convergence from 4.8779768340731057e-03 to 4.8779768340731161e-03 seconds.
Warning: Simulation tolerance relaxed to achieve convergence from 4.8779768340731465e-03 to 4.8779768340731569e-03 seconds.
Warning: Simulation tolerance relaxed to achieve convergence from 4.8779768340732081e-03 to 4.8779768340732185e-03 seconds.
Warning: Simulation tolerance relaxed to achieve convergence from 4.8779768340732289e-03 to 4.8779768340732393e-03 seconds.
Warning: Simulation tolerance relaxed to achieve convergence from 4.8779768340732801e-03 to 4.8779768340732905e-03 seconds.
Warning: Simulation tolerance relaxed to achieve convergence from 4.8779768340734718e-03 to 4.8779768340734822e-03 seconds.
Warning: Simulation tolerance relaxed to achieve convergence from 4.8779768340735125e-03 to 4.8779768340735229e-03 seconds.
Warning: Simulation tolerance relaxed to achieve convergence from 4.8779768340736036e-03 to 4.8779768340736140e-03 seconds.
Warning: Simulation tolerance relaxed to achieve convergence from 4.8779768340736140e-03 to 4.8779768340736244e-03 seconds.
Warning: Simulation tolerance relaxed to achieve convergence from 4.8779768340736452e-03 to 4.8779768340736556e-03 seconds.
Warning: Simulation tolerance relaxed to achieve convergence from 4.8779768340738057e-03 to 4.8779768340738161e-03 seconds.
Warning: Simulation tolerance relaxed to achieve convergence from 4.8779768340738369e-03 to 4.8779768340738473e-03 seconds.
Warning: Simulation tolerance relaxed to achieve convergence from 4.8779768340738473e-03 to 4.8779768340738577e-03 seconds.
Total elapsed time: 53.154 seconds.

Files loaded:
Z:\home\fadelrio\Documents\Ingenieria\Taller de circuitos\TP\quinto_check\fuente_conmutada_1.net
C:\users\fadelrio\AppData\Local\LTspice\lib\cmp\standard.dio
C:\users\fadelrio\AppData\Local\LTspice\lib\cmp\standard.mos
Z:\home\fadelrio\Documents\Ingenieria\Taller de circuitos\TP\quinto_check\IR2104.lib
Z:\home\fadelrio\Documents\Ingenieria\Taller de circuitos\TP\quinto_check\LM393A.lib
C:\users\fadelrio\AppData\Local\LTspice\lib\sub\ADI.lib

