LTspice 24.1.10 for Windows
Circuit: Z:\home\fadelrio\Documents\Ingenieria\Taller de circuitos\TP\quinto_check\oscilador.net
Start Time: Wed Nov 26 18:01:45 2025
solver = Normal
Maximum thread count: 16
tnom = 27
temp = 27
method = modified trap
Direct Newton iteration failed to find .op point.  (Use ".option noopiter" to skip.)
Starting Gmin stepping
Gmin = 10
Gmin = 1.07374
Gmin = 0.115292
Gmin = 0.0123794
Gmin = 0.00132923
Gmin = 0.000142725
Gmin = 1.5325e-05
vernier = 0.5
vernier = 0.25
vernier = 0.333333
Gmin = 1.1127e-05
vernier = 0.166667
vernier = 0.0833333
Gmin = 8.55224e-06
vernier = 0.111111
vernier = 0.148148
Gmin = 6.27347e-06
vernier = 0.197531
vernier = 0.0987653
vernier = 0.131687
Gmin = 4.99904e-06
vernier = 0.0658435
vernier = 0.0877914
Gmin = 4.22541e-06
vernier = 0.117055
vernier = 0.0585276
vernier = 0.0292638
Gmin = 3.73589e-06
vernier = 0.0390184
vernier = 0.0520245
Gmin = 3.404e-06
vernier = 0.0693659
Gmin = 2.92817e-06
vernier = 0.0924879
vernier = 0.046244
vernier = 0.023122
vernier = 0.0308293
Gmin = 2.7751e-06
vernier = 0.0411057
Gmin = 2.5375e-06
vernier = 0.0548076
vernier = 0.0730768
vernier = 0.0365384
vernier = 0.0182692
Gmin = 2.31475e-06
vernier = 0.0243589
Gmin = 2.19495e-06
vernier = 0.0324786
vernier = 0.0433047
Gmin = 2.01227e-06
vernier = 0.0577396
vernier = 0.0288698
Gmin = 1.87949e-06
vernier = 0.0384931
vernier = 0.0513241
vernier = 0.025662
Gmin = 1.75198e-06
vernier = 0.0342161
vernier = 0.0456214
Gmin = 1.61465e-06
vernier = 0.0228107
vernier = 0.0304143
Gmin = 1.53991e-06
vernier = 0.0405523
vernier = 0.0202762
vernier = 0.0270349
Gmin = 1.46897e-06
vernier = 0.0360465
Gmin = 1.35801e-06
vernier = 0.0180232
vernier = 0.024031
Gmin = 1.30418e-06
vernier = 0.0320413
vernier = 0.0427217
Gmin = 1.20818e-06
vernier = 0.0213609
vernier = 0.0284812
Gmin = 1.15572e-06
vernier = 0.0379749
vernier = 0.0189874
vernier = 0.0253166
Gmin = 1.10578e-06
vernier = 0.0337554
vernier = 0.0168777
Gmin = 1.05799e-06
vernier = 0.0225036
vernier = 0.0300048
vernier = 0.0150024
Gmin = 1.01439e-06
vernier = 0.0075012
vernier = 0.0100016
Gmin = 9.94944e-07
vernier = 0.0133355
vernier = 0.0177806
Gmin = 9.61843e-07
vernier = 0.0237075
Gmin = 9.12013e-07
vernier = 0.03161
vernier = 0.0421466
Gmin = 8.34222e-07
vernier = 0.0561954
vernier = 0.0749272
Gmin = 7.23943e-07
vernier = 0.099903
Gmin = 5.79673e-07
vernier = 0.133204
vernier = 0.177605
Gmin = 4.0027e-07
vernier = 0.236807
vernier = 0.315742
Gmin = 2.23231e-07
vernier = 0.42099
Gmin = 9.03682e-08
vernier = 0.561319
vernier = 0.748426
Gmin = 2.06954e-08
vernier = 0.997901
vernier = 1
Gmin = 2.47007e-09
Gmin = 2.65221e-10
Gmin = 2.84779e-11
Gmin = 3.0578e-12
Gmin = 3.28328e-13
Gmin = 0
Gmin stepping succeeded in finding the operating point.

Warning: Simulation tolerance relaxed to achieve convergence from 6.9083829562598953e-06 to 6.9083829562608957e-06 seconds.
Warning: Simulation tolerance relaxed to achieve convergence from 6.9083829562608957e-06 to 6.9083829562618960e-06 seconds.
Warning: Simulation tolerance relaxed to achieve convergence from 6.9083829562618960e-06 to 6.9083829562628964e-06 seconds.
Warning: Simulation tolerance relaxed to achieve convergence from 6.9083829562628964e-06 to 6.9083829562638967e-06 seconds.
Warning: Simulation tolerance relaxed to achieve convergence from 6.9083829562638967e-06 to 6.9083829562648971e-06 seconds.
Warning: Simulation tolerance relaxed to achieve convergence from 6.9083829562648971e-06 to 6.9083829562658974e-06 seconds.
Warning: Simulation tolerance relaxed to achieve convergence from 6.9083829562658974e-06 to 6.9083829562668978e-06 seconds.
Warning: Simulation tolerance relaxed to achieve convergence from 6.9083829562668978e-06 to 6.9083829562678981e-06 seconds.
Warning: Simulation tolerance relaxed to achieve convergence from 6.9083829562678981e-06 to 6.9083829562688985e-06 seconds.
Warning: Simulation tolerance relaxed to achieve convergence from 6.9083829562688985e-06 to 6.9083829562698988e-06 seconds.
Warning: Simulation tolerance relaxed to achieve convergence from 6.9083829562698988e-06 to 6.9083829562708991e-06 seconds.
Warning: Simulation tolerance relaxed to achieve convergence from 6.9083829562708991e-06 to 6.9083829562718995e-06 seconds.
Warning: Simulation tolerance relaxed to achieve convergence from 6.9083829562718995e-06 to 6.9083829562728998e-06 seconds.
Warning: Simulation tolerance relaxed to achieve convergence from 6.9083829562728998e-06 to 6.9083829562739002e-06 seconds.
Warning: Simulation tolerance relaxed to achieve convergence from 6.9083829562739002e-06 to 6.9083829562749005e-06 seconds.
Warning: Simulation tolerance relaxed to achieve convergence from 6.9083829562749005e-06 to 6.9083829562759009e-06 seconds.
Warning: Simulation tolerance relaxed to achieve convergence from 6.9083829562759009e-06 to 6.9083829562769012e-06 seconds.
Warning: Simulation tolerance relaxed to achieve convergence from 6.9083829562769012e-06 to 6.9083829562779016e-06 seconds.
Warning: Simulation tolerance relaxed to achieve convergence from 6.9083829562779016e-06 to 6.9083829562789019e-06 seconds.
Warning: Simulation tolerance relaxed to achieve convergence from 6.9083829562789019e-06 to 6.9083829562799023e-06 seconds.
Warning: Simulation tolerance relaxed to achieve convergence from 6.9083829562799023e-06 to 6.9083829562809026e-06 seconds.
Warning: Simulation tolerance relaxed to achieve convergence from 6.9083829562809026e-06 to 6.9083829562819029e-06 seconds.
Warning: Simulation tolerance relaxed to achieve convergence from 6.9083829562819029e-06 to 6.9083829562829033e-06 seconds.
Warning: Simulation tolerance relaxed to achieve convergence from 6.9083829562829033e-06 to 6.9083829562839036e-06 seconds.
Warning: Simulation tolerance relaxed to achieve convergence from 6.9083829562839036e-06 to 6.9083829562849040e-06 seconds.
Warning: Simulation tolerance relaxed to achieve convergence from 6.9083829562849040e-06 to 6.9083829562859043e-06 seconds.
Warning: Simulation tolerance relaxed to achieve convergence from 6.9083829562859043e-06 to 6.9083829562869047e-06 seconds.
Warning: Simulation tolerance relaxed to achieve convergence from 6.9083829562869047e-06 to 6.9083829562879050e-06 seconds.
Warning: Simulation tolerance relaxed to achieve convergence from 6.9083829562879050e-06 to 6.9083829562889054e-06 seconds.
Warning: Simulation tolerance relaxed to achieve convergence from 6.9083829562889054e-06 to 6.9083829562899057e-06 seconds.
Warning: Simulation tolerance relaxed to achieve convergence from 6.9083829562899057e-06 to 6.9083829562909061e-06 seconds.
Warning: Simulation tolerance relaxed to achieve convergence from 6.9083829562909061e-06 to 6.9083829562919064e-06 seconds.
Warning: Simulation tolerance relaxed to achieve convergence from 6.9083829562919064e-06 to 6.9083829562929068e-06 seconds.
Warning: Simulation tolerance relaxed to achieve convergence from 6.9083829562929068e-06 to 6.9083829562939071e-06 seconds.
Warning: Simulation tolerance relaxed to achieve convergence from 6.9083829562939071e-06 to 6.9083829562949074e-06 seconds.
Warning: Simulation tolerance relaxed to achieve convergence from 6.9083829562949074e-06 to 6.9083829562959078e-06 seconds.
Warning: Simulation tolerance relaxed to achieve convergence from 6.9083829562959078e-06 to 6.9083829562969081e-06 seconds.
Warning: Simulation tolerance relaxed to achieve convergence from 6.9083829562969081e-06 to 6.9083829562979085e-06 seconds.
Warning: Simulation tolerance relaxed to achieve convergence from 6.9083829562979085e-06 to 6.9083829562989088e-06 seconds.
Warning: Simulation tolerance relaxed to achieve convergence from 6.9083829562989088e-06 to 6.9083829562999092e-06 seconds.
Warning: Simulation tolerance relaxed to achieve convergence from 6.9083829562999092e-06 to 6.9083829563009095e-06 seconds.
Warning: Simulation tolerance relaxed to achieve convergence from 6.9083829563009095e-06 to 6.9083829563019099e-06 seconds.
Warning: Simulation tolerance relaxed to achieve convergence from 6.9083829563019099e-06 to 6.9083829563029102e-06 seconds.
Warning: Simulation tolerance relaxed to achieve convergence from 6.9083829563029102e-06 to 6.9083829563039106e-06 seconds.
Warning: Simulation tolerance relaxed to achieve convergence from 6.9083829563039106e-06 to 6.9083829563049109e-06 seconds.
Warning: Simulation tolerance relaxed to achieve convergence from 6.9083829563049109e-06 to 6.9083829563059113e-06 seconds.
Warning: Simulation tolerance relaxed to achieve convergence from 6.9083829563059113e-06 to 6.9083829563069116e-06 seconds.
Warning: Simulation tolerance relaxed to achieve convergence from 6.9083829563069116e-06 to 6.9083829563079119e-06 seconds.
Warning: Simulation tolerance relaxed to achieve convergence from 6.9083829563079119e-06 to 6.9083829563089123e-06 seconds.
Warning: Simulation tolerance relaxed to achieve convergence from 6.9083829563089123e-06 to 6.9083829563099126e-06 seconds.
Warning: Simulation tolerance relaxed to achieve convergence from 6.9083829563099126e-06 to 6.9083829563109130e-06 seconds.
Warning: Simulation tolerance relaxed to achieve convergence from 6.9083829563109130e-06 to 6.9083829563119133e-06 seconds.
Warning: Simulation tolerance relaxed to achieve convergence from 6.9083829563119133e-06 to 6.9083829563129137e-06 seconds.
Warning: Simulation tolerance relaxed to achieve convergence from 6.9083829563129137e-06 to 6.9083829563139140e-06 seconds.
Warning: Simulation tolerance relaxed to achieve convergence from 6.9083829563139140e-06 to 6.9083829563149144e-06 seconds.
Warning: Simulation tolerance relaxed to achieve convergence from 6.9083829563149144e-06 to 6.9083829563159147e-06 seconds.
Warning: Simulation tolerance relaxed to achieve convergence from 6.9083829563159147e-06 to 6.9083829563169151e-06 seconds.
Warning: Simulation tolerance relaxed to achieve convergence from 6.9083829563169151e-06 to 6.9083829563179154e-06 seconds.
Warning: Simulation tolerance relaxed to achieve convergence from 6.9083829563179154e-06 to 6.9083829563189157e-06 seconds.
Warning: Simulation tolerance relaxed to achieve convergence from 6.9083829563189157e-06 to 6.9083829563199161e-06 seconds.
Warning: Simulation tolerance relaxed to achieve convergence from 6.9083829563199161e-06 to 6.9083829563209164e-06 seconds.
Warning: Simulation tolerance relaxed to achieve convergence from 6.9083829563209164e-06 to 6.9083829563219168e-06 seconds.
Warning: Simulation tolerance relaxed to achieve convergence from 6.9083829563239166e-06 to 6.9083829563249170e-06 seconds.
Warning: Simulation tolerance relaxed to achieve convergence from 6.9083829563249170e-06 to 6.9083829563259173e-06 seconds.
Warning: Simulation tolerance relaxed to achieve convergence from 6.9083829563269177e-06 to 6.9083829563279180e-06 seconds.
Warning: Simulation tolerance relaxed to achieve convergence from 6.9083829563279180e-06 to 6.9083829563289184e-06 seconds.
Warning: Simulation tolerance relaxed to achieve convergence from 6.9083829563289184e-06 to 6.9083829563299187e-06 seconds.
Warning: Simulation tolerance relaxed to achieve convergence from 6.9083829563299187e-06 to 6.9083829563309191e-06 seconds.
Warning: Simulation tolerance relaxed to achieve convergence from 6.9083829563309191e-06 to 6.9083829563319194e-06 seconds.
Warning: Simulation tolerance relaxed to achieve convergence from 6.9083829563319194e-06 to 6.9083829563329197e-06 seconds.
Warning: Simulation tolerance relaxed to achieve convergence from 6.9083829563529267e-06 to 6.9083829563539270e-06 seconds.
Warning: Simulation tolerance relaxed to achieve convergence from 6.9083829563759346e-06 to 6.9083829563769350e-06 seconds.
Warning: Simulation tolerance relaxed to achieve convergence from 6.9083829564059450e-06 to 6.9083829564069453e-06 seconds.
Warning: Simulation tolerance relaxed to achieve convergence from 6.9083829564079457e-06 to 6.9083829564089460e-06 seconds.
Warning: Simulation tolerance relaxed to achieve convergence from 6.9083829564299533e-06 to 6.9083829564309536e-06 seconds.
Warning: Simulation tolerance relaxed to achieve convergence from 6.9083829564619644e-06 to 6.9083829564629647e-06 seconds.
Warning: Simulation tolerance relaxed to achieve convergence from 6.9083829564839720e-06 to 6.9083829564849723e-06 seconds.
Warning: Simulation tolerance relaxed to achieve convergence from 6.9083829564869730e-06 to 6.9083829564879734e-06 seconds.
Warning: Simulation tolerance relaxed to achieve convergence from 6.9083829564969765e-06 to 6.9083829564979768e-06 seconds.
Warning: Simulation tolerance relaxed to achieve convergence from 6.9083829564999775e-06 to 6.9083829565009779e-06 seconds.
Warning: Simulation tolerance relaxed to achieve convergence from 6.9083829565089806e-06 to 6.9083829565099810e-06 seconds.
Warning: Simulation tolerance relaxed to achieve convergence from 6.9083829565099810e-06 to 6.9083829565109813e-06 seconds.
Warning: Simulation tolerance relaxed to achieve convergence from 6.9083829565149827e-06 to 6.9083829565159830e-06 seconds.
Warning: Simulation tolerance relaxed to achieve convergence from 6.9083829565179837e-06 to 6.9083829565189841e-06 seconds.
Warning: Simulation tolerance relaxed to achieve convergence from 6.9083829565199844e-06 to 6.9083829565209848e-06 seconds.
Warning: Simulation tolerance relaxed to achieve convergence from 6.9083829565539962e-06 to 6.9083829565549965e-06 seconds.
Warning: Simulation tolerance relaxed to achieve convergence from 6.9083829565690014e-06 to 6.9083829565700017e-06 seconds.
Warning: Simulation tolerance relaxed to achieve convergence from 6.9083829565870076e-06 to 6.9083829565880080e-06 seconds.
Warning: Simulation tolerance relaxed to achieve convergence from 6.9083829566090152e-06 to 6.9083829566100156e-06 seconds.
Warning: Simulation tolerance relaxed to achieve convergence from 6.9083829566530304e-06 to 6.9083829566540308e-06 seconds.
Warning: Simulation tolerance relaxed to achieve convergence from 6.9083829566590325e-06 to 6.9083829566600329e-06 seconds.
Warning: Simulation tolerance relaxed to achieve convergence from 6.9083829566760384e-06 to 6.9083829566770387e-06 seconds.
Warning: Simulation tolerance relaxed to achieve convergence from 6.9083829566820405e-06 to 6.9083829566830408e-06 seconds.
Warning: Simulation tolerance relaxed to achieve convergence from 6.9083829567160522e-06 to 6.9083829567170526e-06 seconds.
Warning: Simulation tolerance relaxed to achieve convergence from 6.9083829567190533e-06 to 6.9083829567200536e-06 seconds.
Warning: Simulation tolerance relaxed to achieve convergence from 6.9083829567340585e-06 to 6.9083829567350588e-06 seconds.
Warning: Simulation tolerance relaxed to achieve convergence from 6.9083829567470630e-06 to 6.9083829567480633e-06 seconds.
Warning: Simulation tolerance relaxed to achieve convergence from 6.9083829567480633e-06 to 6.9083829567490636e-06 seconds.
Warning: Simulation tolerance relaxed to achieve convergence from 6.9083829567690706e-06 to 6.9083829567700709e-06 seconds.
Warning: Simulation tolerance relaxed to achieve convergence from 6.9083829568030823e-06 to 6.9083829568040827e-06 seconds.
Warning: Simulation tolerance relaxed to achieve convergence from 6.9083829568260903e-06 to 6.9083829568270906e-06 seconds.
Warning: Simulation tolerance relaxed to achieve convergence from 6.9083829568310920e-06 to 6.9083829568320924e-06 seconds.
Warning: Simulation tolerance relaxed to achieve convergence from 6.9083829568470975e-06 to 6.9083829568480979e-06 seconds.
Warning: Simulation tolerance relaxed to achieve convergence from 6.9083829568500986e-06 to 6.9083829568510989e-06 seconds.
Warning: Simulation tolerance relaxed to achieve convergence from 6.9083829568561007e-06 to 6.9083829568571010e-06 seconds.
Warning: Simulation tolerance relaxed to achieve convergence from 6.9083829568851107e-06 to 6.9083829568861110e-06 seconds.
Warning: Simulation tolerance relaxed to achieve convergence from 6.9083829568891121e-06 to 6.9083829568901124e-06 seconds.
Warning: Simulation tolerance relaxed to achieve convergence from 6.9083829568921131e-06 to 6.9083829568931135e-06 seconds.
Warning: Simulation tolerance relaxed to achieve convergence from 6.9083829569081186e-06 to 6.9083829569091190e-06 seconds.
Warning: Simulation tolerance relaxed to achieve convergence from 6.9083829569181221e-06 to 6.9083829569191224e-06 seconds.
Warning: Simulation tolerance relaxed to achieve convergence from 6.9083829569211231e-06 to 6.9083829569221235e-06 seconds.
Warning: Simulation tolerance relaxed to achieve convergence from 6.9083829569331273e-06 to 6.9083829569341276e-06 seconds.
Warning: Simulation tolerance relaxed to achieve convergence from 6.9083829569601366e-06 to 6.9083829569611370e-06 seconds.
Warning: Simulation tolerance relaxed to achieve convergence from 6.9083829569681394e-06 to 6.9083829569691397e-06 seconds.
Warning: Simulation tolerance relaxed to achieve convergence from 6.9083829569811439e-06 to 6.9083829569821442e-06 seconds.
Warning: Simulation tolerance relaxed to achieve convergence from 6.9083829569891467e-06 to 6.9083829569901470e-06 seconds.
Warning: Simulation tolerance relaxed to achieve convergence from 6.9083829570051522e-06 to 6.9083829570061525e-06 seconds.
Warning: Simulation tolerance relaxed to achieve convergence from 6.9083829570071529e-06 to 6.9083829570081532e-06 seconds.
Warning: Simulation tolerance relaxed to achieve convergence from 6.9083829570081532e-06 to 6.9083829570091536e-06 seconds.
Warning: Simulation tolerance relaxed to achieve convergence from 6.9083829570551695e-06 to 6.9083829570561698e-06 seconds.
Warning: Simulation tolerance relaxed to achieve convergence from 6.9083829570641726e-06 to 6.9083829570651729e-06 seconds.
Warning: Simulation tolerance relaxed to achieve convergence from 6.9083829570681740e-06 to 6.9083829570691743e-06 seconds.
Warning: Simulation tolerance relaxed to achieve convergence from 6.9083829571021857e-06 to 6.9083829571031861e-06 seconds.
Warning: Simulation tolerance relaxed to achieve convergence from 6.9083829571191916e-06 to 6.9083829571201920e-06 seconds.
Warning: Simulation tolerance relaxed to achieve convergence from 6.9083829571361975e-06 to 6.9083829571371979e-06 seconds.
Warning: Simulation tolerance relaxed to achieve convergence from 6.9083829571492020e-06 to 6.9083829571502024e-06 seconds.
Warning: Simulation tolerance relaxed to achieve convergence from 6.9083829571812131e-06 to 6.9083829571822134e-06 seconds.
Warning: Simulation tolerance relaxed to achieve convergence from 6.9083829571862148e-06 to 6.9083829571872152e-06 seconds.
Warning: Simulation tolerance relaxed to achieve convergence from 6.9083829571982190e-06 to 6.9083829571992193e-06 seconds.
Warning: Simulation tolerance relaxed to achieve convergence from 6.9083829572132241e-06 to 6.9083829572142245e-06 seconds.
Warning: Simulation tolerance relaxed to achieve convergence from 6.9083829572272290e-06 to 6.9083829572282293e-06 seconds.
Warning: Simulation tolerance relaxed to achieve convergence from 6.9083829572442349e-06 to 6.9083829572452352e-06 seconds.
Warning: Simulation tolerance relaxed to achieve convergence from 6.9083829572572394e-06 to 6.9083829572582397e-06 seconds.
Warning: Simulation tolerance relaxed to achieve convergence from 6.9083829572852491e-06 to 6.9083829572862494e-06 seconds.
Warning: Simulation tolerance relaxed to achieve convergence from 6.9083829572972532e-06 to 6.9083829572982535e-06 seconds.
Warning: Simulation tolerance relaxed to achieve convergence from 6.9083829573052560e-06 to 6.9083829573062563e-06 seconds.
Warning: Simulation tolerance relaxed to achieve convergence from 6.9083829573442695e-06 to 6.9083829573452698e-06 seconds.
Warning: Simulation tolerance relaxed to achieve convergence from 6.9083829573462702e-06 to 6.9083829573472705e-06 seconds.
Warning: Simulation tolerance relaxed to achieve convergence from 6.9083829573582743e-06 to 6.9083829573592746e-06 seconds.
Warning: Simulation tolerance relaxed to achieve convergence from 6.9083829573632760e-06 to 6.9083829573642764e-06 seconds.
Warning: Simulation tolerance relaxed to achieve convergence from 6.9083829573702785e-06 to 6.9083829573712788e-06 seconds.
Warning: Simulation tolerance relaxed to achieve convergence from 6.9083829573722791e-06 to 6.9083829573732795e-06 seconds.
Warning: Simulation tolerance relaxed to achieve convergence from 6.9083829573782812e-06 to 6.9083829573792816e-06 seconds.
Warning: Simulation tolerance relaxed to achieve convergence from 6.9083829573812823e-06 to 6.9083829573822826e-06 seconds.
Warning: Simulation tolerance relaxed to achieve convergence from 6.9083829573832829e-06 to 6.9083829573842833e-06 seconds.
Warning: Simulation tolerance relaxed to achieve convergence from 6.9083829573932864e-06 to 6.9083829573942868e-06 seconds.
Warning: Simulation tolerance relaxed to achieve convergence from 6.9083829573952871e-06 to 6.9083829573962874e-06 seconds.
Warning: Simulation tolerance relaxed to achieve convergence from 6.9083829573972878e-06 to 6.9083829573982881e-06 seconds.
Warning: Simulation tolerance relaxed to achieve convergence from 6.9083829574062909e-06 to 6.9083829574072913e-06 seconds.
Warning: Simulation tolerance relaxed to achieve convergence from 6.9083829574112926e-06 to 6.9083829574122930e-06 seconds.
Warning: Simulation tolerance relaxed to achieve convergence from 6.9083829574142937e-06 to 6.9083829574152940e-06 seconds.
Warning: Simulation tolerance relaxed to achieve convergence from 6.9083829574182951e-06 to 6.9083829574192954e-06 seconds.
Warning: Simulation tolerance relaxed to achieve convergence from 6.9083829574242971e-06 to 6.9083829574252975e-06 seconds.
Warning: Simulation tolerance relaxed to achieve convergence from 6.9083829574363013e-06 to 6.9083829574373016e-06 seconds.
Warning: Simulation tolerance relaxed to achieve convergence from 6.9083829574513065e-06 to 6.9083829574523068e-06 seconds.
Warning: Simulation tolerance relaxed to achieve convergence from 6.9083829574653113e-06 to 6.9083829574663117e-06 seconds.
Warning: Simulation tolerance relaxed to achieve convergence from 6.9083829574733141e-06 to 6.9083829574743144e-06 seconds.
Warning: Simulation tolerance relaxed to achieve convergence from 6.9083829574783158e-06 to 6.9083829574793162e-06 seconds.
Warning: Simulation tolerance relaxed to achieve convergence from 6.9083829574853182e-06 to 6.9083829574863186e-06 seconds.
Warning: Simulation tolerance relaxed to achieve convergence from 6.9083829574963220e-06 to 6.9083829574973224e-06 seconds.
Warning: Simulation tolerance relaxed to achieve convergence from 6.9083829575163290e-06 to 6.9083829575173293e-06 seconds.
Warning: Simulation tolerance relaxed to achieve convergence from 6.9083829575383366e-06 to 6.9083829575393369e-06 seconds.
Warning: Simulation tolerance relaxed to achieve convergence from 6.9083829575393369e-06 to 6.9083829575403373e-06 seconds.
Warning: Simulation tolerance relaxed to achieve convergence from 6.9083829575403373e-06 to 6.9083829575413376e-06 seconds.
Warning: Simulation tolerance relaxed to achieve convergence from 6.9083829575663463e-06 to 6.9083829575673466e-06 seconds.
Warning: Simulation tolerance relaxed to achieve convergence from 6.9083829575683469e-06 to 6.9083829575693473e-06 seconds.
Warning: Simulation tolerance relaxed to achieve convergence from 6.9083829575973570e-06 to 6.9083829575983573e-06 seconds.
Warning: Simulation tolerance relaxed to achieve convergence from 6.9083829576073604e-06 to 6.9083829576083608e-06 seconds.
Warning: Simulation tolerance relaxed to achieve convergence from 6.9083829576343698e-06 to 6.9083829576353701e-06 seconds.
Warning: Simulation tolerance relaxed to achieve convergence from 6.9083829576583781e-06 to 6.9083829576593784e-06 seconds.
Warning: Simulation tolerance relaxed to achieve convergence from 6.9083829576803857e-06 to 6.9083829576813860e-06 seconds.
Warning: Simulation tolerance relaxed to achieve convergence from 6.9083829576853874e-06 to 6.9083829576863878e-06 seconds.
Warning: Simulation tolerance relaxed to achieve convergence from 6.9083829576943905e-06 to 6.9083829576953909e-06 seconds.
Warning: Simulation tolerance relaxed to achieve convergence from 6.9083829577003926e-06 to 6.9083829577013929e-06 seconds.
Warning: Simulation tolerance relaxed to achieve convergence from 6.9083829577193992e-06 to 6.9083829577203995e-06 seconds.
Warning: Simulation tolerance relaxed to achieve convergence from 6.9083829577284023e-06 to 6.9083829577294026e-06 seconds.
Warning: Simulation tolerance relaxed to achieve convergence from 6.9083829577364051e-06 to 6.9083829577374054e-06 seconds.
Warning: Simulation tolerance relaxed to achieve convergence from 6.9083829577504099e-06 to 6.9083829577514102e-06 seconds.
Warning: Simulation tolerance relaxed to achieve convergence from 6.9083829577604134e-06 to 6.9083829577614137e-06 seconds.
Warning: Simulation tolerance relaxed to achieve convergence from 6.9083829577844217e-06 to 6.9083829577854220e-06 seconds.
Warning: Simulation tolerance relaxed to achieve convergence from 6.9083829578074296e-06 to 6.9083829578084300e-06 seconds.
Warning: Simulation tolerance relaxed to achieve convergence from 6.9083829578394407e-06 to 6.9083829578404410e-06 seconds.
Warning: Simulation tolerance relaxed to achieve convergence from 6.9083829578604479e-06 to 6.9083829578614483e-06 seconds.
Warning: Simulation tolerance relaxed to achieve convergence from 6.9083829578694511e-06 to 6.9083829578704514e-06 seconds.
Warning: Simulation tolerance relaxed to achieve convergence from 6.9083829578794545e-06 to 6.9083829578804549e-06 seconds.
Warning: Simulation tolerance relaxed to achieve convergence from 6.9083829578874573e-06 to 6.9083829578884576e-06 seconds.
Warning: Simulation tolerance relaxed to achieve convergence from 6.9083829579184680e-06 to 6.9083829579194684e-06 seconds.
Warning: Simulation tolerance relaxed to achieve convergence from 6.9083829579234697e-06 to 6.9083829579244701e-06 seconds.
Warning: Simulation tolerance relaxed to achieve convergence from 6.9083829579274711e-06 to 6.9083829579284715e-06 seconds.
Warning: Simulation tolerance relaxed to achieve convergence from 6.9083829579304722e-06 to 6.9083829579314725e-06 seconds.
Warning: Simulation tolerance relaxed to achieve convergence from 6.9083829579364742e-06 to 6.9083829579374746e-06 seconds.
Warning: Simulation tolerance relaxed to achieve convergence from 6.9083829579384749e-06 to 6.9083829579394753e-06 seconds.
Warning: Simulation tolerance relaxed to achieve convergence from 6.9083829579414760e-06 to 6.9083829579424763e-06 seconds.
Warning: Simulation tolerance relaxed to achieve convergence from 6.9083829579724867e-06 to 6.9083829579734870e-06 seconds.
Warning: Simulation tolerance relaxed to achieve convergence from 6.9083829579794891e-06 to 6.9083829579804895e-06 seconds.
Warning: Simulation tolerance relaxed to achieve convergence from 6.9083829579874919e-06 to 6.9083829579884922e-06 seconds.
Warning: Simulation tolerance relaxed to achieve convergence from 6.9083829579894926e-06 to 6.9083829579904929e-06 seconds.
Warning: Simulation tolerance relaxed to achieve convergence from 6.9083829580104998e-06 to 6.9083829580115002e-06 seconds.
Warning: Simulation tolerance relaxed to achieve convergence from 6.9083829580335078e-06 to 6.9083829580345081e-06 seconds.
Warning: Simulation tolerance relaxed to achieve convergence from 6.9083829580505137e-06 to 6.9083829580515140e-06 seconds.
Warning: Simulation tolerance relaxed to achieve convergence from 6.9083829580865261e-06 to 6.9083829580875265e-06 seconds.
Warning: Simulation tolerance relaxed to achieve convergence from 6.9083829580875265e-06 to 6.9083829580885268e-06 seconds.
Warning: Simulation tolerance relaxed to achieve convergence from 6.9083829581105344e-06 to 6.9083829581115348e-06 seconds.
Warning: Simulation tolerance relaxed to achieve convergence from 6.9083829581135355e-06 to 6.9083829581145358e-06 seconds.
Warning: Simulation tolerance relaxed to achieve convergence from 6.9083829581225386e-06 to 6.9083829581235389e-06 seconds.
Warning: Simulation tolerance relaxed to achieve convergence from 6.9083829581295410e-06 to 6.9083829581305413e-06 seconds.
Warning: Simulation tolerance relaxed to achieve convergence from 6.9083829581495479e-06 to 6.9083829581505483e-06 seconds.
Warning: Simulation tolerance relaxed to achieve convergence from 6.9083829581585510e-06 to 6.9083829581595514e-06 seconds.
Warning: Simulation tolerance relaxed to achieve convergence from 6.9083829581625524e-06 to 6.9083829581635528e-06 seconds.
Warning: Simulation tolerance relaxed to achieve convergence from 6.9083829581655535e-06 to 6.9083829581665538e-06 seconds.
Warning: Simulation tolerance relaxed to achieve convergence from 6.9083829581695548e-06 to 6.9083829581705552e-06 seconds.
Warning: Simulation tolerance relaxed to achieve convergence from 6.9083829581785579e-06 to 6.9083829581795583e-06 seconds.
Warning: Simulation tolerance relaxed to achieve convergence from 6.9083829581885614e-06 to 6.9083829581895618e-06 seconds.
Warning: Simulation tolerance relaxed to achieve convergence from 6.9083829582015659e-06 to 6.9083829582025663e-06 seconds.
Warning: Simulation tolerance relaxed to achieve convergence from 6.9083829582105690e-06 to 6.9083829582115694e-06 seconds.
Warning: Simulation tolerance relaxed to achieve convergence from 6.9083829582135701e-06 to 6.9083829582145704e-06 seconds.
Warning: Simulation tolerance relaxed to achieve convergence from 6.9083829582365780e-06 to 6.9083829582375784e-06 seconds.
Warning: Simulation tolerance relaxed to achieve convergence from 6.9083829582445808e-06 to 6.9083829582455811e-06 seconds.
Warning: Simulation tolerance relaxed to achieve convergence from 6.9083829582495825e-06 to 6.9083829582505829e-06 seconds.
Warning: Simulation tolerance relaxed to achieve convergence from 6.9083829582585856e-06 to 6.9083829582595860e-06 seconds.
Warning: Simulation tolerance relaxed to achieve convergence from 6.9083829582705898e-06 to 6.9083829582715901e-06 seconds.
Warning: Simulation tolerance relaxed to achieve convergence from 6.9083829582965988e-06 to 6.9083829582975991e-06 seconds.
Warning: Simulation tolerance relaxed to achieve convergence from 6.9083829583196067e-06 to 6.9083829583206071e-06 seconds.
Warning: Simulation tolerance relaxed to achieve convergence from 6.9083829583986340e-06 to 6.9083829583996344e-06 seconds.
Warning: Simulation tolerance relaxed to achieve convergence from 6.9083829584086375e-06 to 6.9083829584096379e-06 seconds.
Warning: Simulation tolerance relaxed to achieve convergence from 6.9083829584216420e-06 to 6.9083829584226424e-06 seconds.
Warning: Simulation tolerance relaxed to achieve convergence from 6.9083829584396482e-06 to 6.9083829584406486e-06 seconds.
Warning: Simulation tolerance relaxed to achieve convergence from 6.9083829584446500e-06 to 6.9083829584456503e-06 seconds.
Warning: Simulation tolerance relaxed to achieve convergence from 6.9083829584516524e-06 to 6.9083829584526527e-06 seconds.
Warning: Simulation tolerance relaxed to achieve convergence from 6.9083829584576545e-06 to 6.9083829584586548e-06 seconds.
Warning: Simulation tolerance relaxed to achieve convergence from 6.9083829584626562e-06 to 6.9083829584636565e-06 seconds.
Warning: Simulation tolerance relaxed to achieve convergence from 6.9083829584666576e-06 to 6.9083829584676579e-06 seconds.
Warning: Simulation tolerance relaxed to achieve convergence from 6.9083829584916662e-06 to 6.9083829584926666e-06 seconds.
Warning: Simulation tolerance relaxed to achieve convergence from 6.9083829584986686e-06 to 6.9083829584996690e-06 seconds.
Warning: Simulation tolerance relaxed to achieve convergence from 6.9083829585286790e-06 to 6.9083829585296794e-06 seconds.
Warning: Simulation tolerance relaxed to achieve convergence from 6.9083829585306797e-06 to 6.9083829585316801e-06 seconds.
Warning: Simulation tolerance relaxed to achieve convergence from 6.9083829585516870e-06 to 6.9083829585526873e-06 seconds.
Warning: Simulation tolerance relaxed to achieve convergence from 6.9083829585576890e-06 to 6.9083829585586894e-06 seconds.
Warning: Simulation tolerance relaxed to achieve convergence from 6.9083829585997036e-06 to 6.9083829586007039e-06 seconds.
Warning: Simulation tolerance relaxed to achieve convergence from 6.9083829586057057e-06 to 6.9083829586067060e-06 seconds.
Warning: Simulation tolerance relaxed to achieve convergence from 6.9083829586127081e-06 to 6.9083829586137084e-06 seconds.
Warning: Simulation tolerance relaxed to achieve convergence from 6.9083829586327150e-06 to 6.9083829586337153e-06 seconds.
Warning: Simulation tolerance relaxed to achieve convergence from 6.9083829586517216e-06 to 6.9083829586527219e-06 seconds.
Warning: Simulation tolerance relaxed to achieve convergence from 6.9083829586587240e-06 to 6.9083829586597243e-06 seconds.
Warning: Simulation tolerance relaxed to achieve convergence from 6.9083829586727288e-06 to 6.9083829586737292e-06 seconds.
Warning: Simulation tolerance relaxed to achieve convergence from 6.9083829586837326e-06 to 6.9083829586847330e-06 seconds.
Warning: Simulation tolerance relaxed to achieve convergence from 6.9083829587037396e-06 to 6.9083829587047399e-06 seconds.
Warning: Simulation tolerance relaxed to achieve convergence from 6.9083829587197451e-06 to 6.9083829587207454e-06 seconds.
Warning: Simulation tolerance relaxed to achieve convergence from 6.9083829587287482e-06 to 6.9083829587297485e-06 seconds.
Warning: Simulation tolerance relaxed to achieve convergence from 6.9083829587337499e-06 to 6.9083829587347503e-06 seconds.
Warning: Simulation tolerance relaxed to achieve convergence from 6.9083829587447537e-06 to 6.9083829587457541e-06 seconds.
Warning: Simulation tolerance relaxed to achieve convergence from 6.9083829587627600e-06 to 6.9083829587637603e-06 seconds.
Warning: Simulation tolerance relaxed to achieve convergence from 6.9083829588057748e-06 to 6.9083829588067752e-06 seconds.
Warning: Simulation tolerance relaxed to achieve convergence from 6.9083829588167786e-06 to 6.9083829588177790e-06 seconds.
Warning: Simulation tolerance relaxed to achieve convergence from 6.9083829588377859e-06 to 6.9083829588387862e-06 seconds.
Warning: Simulation tolerance relaxed to achieve convergence from 6.9083829588387862e-06 to 6.9083829588397866e-06 seconds.
Warning: Simulation tolerance relaxed to achieve convergence from 6.9083829588487897e-06 to 6.9083829588497901e-06 seconds.
Warning: Simulation tolerance relaxed to achieve convergence from 6.9083829588988070e-06 to 6.9083829588998073e-06 seconds.
Warning: Simulation tolerance relaxed to achieve convergence from 6.9083829589108112e-06 to 6.9083829589118115e-06 seconds.
Warning: Simulation tolerance relaxed to achieve convergence from 6.9083829589268167e-06 to 6.9083829589278170e-06 seconds.
Warning: Simulation tolerance relaxed to achieve convergence from 6.9083829589368201e-06 to 6.9083829589378205e-06 seconds.
Warning: Simulation tolerance relaxed to achieve convergence from 6.9083829589438226e-06 to 6.9083829589448229e-06 seconds.
Warning: Simulation tolerance relaxed to achieve convergence from 6.9083829589448229e-06 to 6.9083829589458233e-06 seconds.
Warning: Simulation tolerance relaxed to achieve convergence from 6.9083829589478240e-06 to 6.9083829589488243e-06 seconds.
Warning: Simulation tolerance relaxed to achieve convergence from 6.9083829589658302e-06 to 6.9083829589668305e-06 seconds.
Warning: Simulation tolerance relaxed to achieve convergence from 6.9083829589968409e-06 to 6.9083829589978412e-06 seconds.
Warning: Simulation tolerance relaxed to achieve convergence from 6.9083829590048437e-06 to 6.9083829590058440e-06 seconds.
Warning: Simulation tolerance relaxed to achieve convergence from 6.9083829590598627e-06 to 6.9083829590608630e-06 seconds.
Warning: Simulation tolerance relaxed to achieve convergence from 6.9083829590818703e-06 to 6.9083829590828707e-06 seconds.
Warning: Simulation tolerance relaxed to achieve convergence from 6.9083829590828707e-06 to 6.9083829590838710e-06 seconds.
Warning: Simulation tolerance relaxed to achieve convergence from 6.9083829591318876e-06 to 6.9083829591328879e-06 seconds.
Warning: Simulation tolerance relaxed to achieve convergence from 6.9083829591388900e-06 to 6.9083829591398904e-06 seconds.
Warning: Simulation tolerance relaxed to achieve convergence from 6.9083829591548956e-06 to 6.9083829591558959e-06 seconds.
Warning: Simulation tolerance relaxed to achieve convergence from 6.9083829591568962e-06 to 6.9083829591578966e-06 seconds.
Warning: Simulation tolerance relaxed to achieve convergence from 6.9083829591628983e-06 to 6.9083829591638987e-06 seconds.
Warning: Simulation tolerance relaxed to achieve convergence from 6.9083829591709011e-06 to 6.9083829591719014e-06 seconds.
Warning: Simulation tolerance relaxed to achieve convergence from 6.9083829591749025e-06 to 6.9083829591759028e-06 seconds.
Warning: Simulation tolerance relaxed to achieve convergence from 6.9083829591769032e-06 to 6.9083829591779035e-06 seconds.
Warning: Simulation tolerance relaxed to achieve convergence from 6.9083829591879070e-06 to 6.9083829591889073e-06 seconds.
Warning: Simulation tolerance relaxed to achieve convergence from 6.9083829592239194e-06 to 6.9083829592249198e-06 seconds.
Warning: Simulation tolerance relaxed to achieve convergence from 6.9083829592269205e-06 to 6.9083829592279208e-06 seconds.
Warning: Simulation tolerance relaxed to achieve convergence from 6.9083829592299215e-06 to 6.9083829592309218e-06 seconds.
Warning: Simulation tolerance relaxed to achieve convergence from 6.9083829592549301e-06 to 6.9083829592559305e-06 seconds.
Warning: Simulation tolerance relaxed to achieve convergence from 6.9083829592609322e-06 to 6.9083829592619326e-06 seconds.
Warning: Simulation tolerance relaxed to achieve convergence from 6.9083829592639333e-06 to 6.9083829592649336e-06 seconds.
Warning: Simulation tolerance relaxed to achieve convergence from 6.9083829592789385e-06 to 6.9083829592799388e-06 seconds.
Warning: Simulation tolerance relaxed to achieve convergence from 6.9083829592799388e-06 to 6.9083829592809391e-06 seconds.
Warning: Simulation tolerance relaxed to achieve convergence from 6.9083829592859409e-06 to 6.9083829592869412e-06 seconds.
Warning: Simulation tolerance relaxed to achieve convergence from 6.9083829593059478e-06 to 6.9083829593069481e-06 seconds.
Warning: Simulation tolerance relaxed to achieve convergence from 6.9083829593119499e-06 to 6.9083829593129502e-06 seconds.
Warning: Simulation tolerance relaxed to achieve convergence from 6.9083829593239540e-06 to 6.9083829593249544e-06 seconds.
Warning: Simulation tolerance relaxed to achieve convergence from 6.9083829593529640e-06 to 6.9083829593539644e-06 seconds.
Warning: Simulation tolerance relaxed to achieve convergence from 6.9083829593589661e-06 to 6.9083829593599665e-06 seconds.
Warning: Simulation tolerance relaxed to achieve convergence from 6.9083829593629675e-06 to 6.9083829593639679e-06 seconds.
Warning: Simulation tolerance relaxed to achieve convergence from 6.9083829593679692e-06 to 6.9083829593689696e-06 seconds.
Warning: Simulation tolerance relaxed to achieve convergence from 6.9083829593969793e-06 to 6.9083829593979796e-06 seconds.
Warning: Simulation tolerance relaxed to achieve convergence from 6.9083829594029813e-06 to 6.9083829594039817e-06 seconds.
Warning: Simulation tolerance relaxed to achieve convergence from 6.9083829594099838e-06 to 6.9083829594109841e-06 seconds.
Warning: Simulation tolerance relaxed to achieve convergence from 6.9083829594179865e-06 to 6.9083829594189869e-06 seconds.
Warning: Simulation tolerance relaxed to achieve convergence from 6.9083829594349924e-06 to 6.9083829594359928e-06 seconds.
Warning: Simulation tolerance relaxed to achieve convergence from 6.9083829594429952e-06 to 6.9083829594439955e-06 seconds.
Warning: Simulation tolerance relaxed to achieve convergence from 6.9083829594469966e-06 to 6.9083829594479969e-06 seconds.
Warning: Simulation tolerance relaxed to achieve convergence from 6.9083829594730056e-06 to 6.9083829594740059e-06 seconds.
Warning: Simulation tolerance relaxed to achieve convergence from 6.9083829595030159e-06 to 6.9083829595040163e-06 seconds.
Warning: Simulation tolerance relaxed to achieve convergence from 6.9083829595190215e-06 to 6.9083829595200218e-06 seconds.
Warning: Simulation tolerance relaxed to achieve convergence from 6.9083829595240232e-06 to 6.9083829595250235e-06 seconds.
Warning: Simulation tolerance relaxed to achieve convergence from 6.9083829595300253e-06 to 6.9083829595310256e-06 seconds.
Warning: Simulation tolerance relaxed to achieve convergence from 6.9083829595360273e-06 to 6.9083829595370277e-06 seconds.
Warning: Simulation tolerance relaxed to achieve convergence from 6.9083829595590353e-06 to 6.9083829595600357e-06 seconds.
Warning: Simulation tolerance relaxed to achieve convergence from 6.9083829595610360e-06 to 6.9083829595620363e-06 seconds.
Warning: Simulation tolerance relaxed to achieve convergence from 6.9083829595650374e-06 to 6.9083829595660377e-06 seconds.
Warning: Simulation tolerance relaxed to achieve convergence from 6.9083829595730401e-06 to 6.9083829595740405e-06 seconds.
Warning: Simulation tolerance relaxed to achieve convergence from 6.9083829595740405e-06 to 6.9083829595750408e-06 seconds.
Warning: Simulation tolerance relaxed to achieve convergence from 6.9083829595870450e-06 to 6.9083829595880453e-06 seconds.
Warning: Simulation tolerance relaxed to achieve convergence from 6.9083829595910464e-06 to 6.9083829595920467e-06 seconds.
Warning: Simulation tolerance relaxed to achieve convergence from 6.9083829596300599e-06 to 6.9083829596310602e-06 seconds.
Warning: Simulation tolerance relaxed to achieve convergence from 6.9083829596340612e-06 to 6.9083829596350616e-06 seconds.
Warning: Simulation tolerance relaxed to achieve convergence from 6.9083829596370623e-06 to 6.9083829596380626e-06 seconds.
Warning: Simulation tolerance relaxed to achieve convergence from 6.9083829596700737e-06 to 6.9083829596710740e-06 seconds.
Warning: Simulation tolerance relaxed to achieve convergence from 6.9083829596780765e-06 to 6.9083829596790768e-06 seconds.
Warning: Simulation tolerance relaxed to achieve convergence from 6.9083829596840785e-06 to 6.9083829596850789e-06 seconds.
Warning: Simulation tolerance relaxed to achieve convergence from 6.9083829596880799e-06 to 6.9083829596890803e-06 seconds.
Warning: Simulation tolerance relaxed to achieve convergence from 6.9083829596970830e-06 to 6.9083829596980834e-06 seconds.
Warning: Simulation tolerance relaxed to achieve convergence from 6.9083829596980834e-06 to 6.9083829596990837e-06 seconds.
Warning: Simulation tolerance relaxed to achieve convergence from 6.9083829597190907e-06 to 6.9083829597200910e-06 seconds.
Warning: Simulation tolerance relaxed to achieve convergence from 6.9083829597290941e-06 to 6.9083829597300945e-06 seconds.
Warning: Simulation tolerance relaxed to achieve convergence from 6.9083829597420986e-06 to 6.9083829597430990e-06 seconds.
Warning: Simulation tolerance relaxed to achieve convergence from 6.9083829597541028e-06 to 6.9083829597551031e-06 seconds.
Warning: Simulation tolerance relaxed to achieve convergence from 6.9083829597641062e-06 to 6.9083829597651066e-06 seconds.
Warning: Simulation tolerance relaxed to achieve convergence from 6.9083829597871142e-06 to 6.9083829597881145e-06 seconds.
Warning: Simulation tolerance relaxed to achieve convergence from 6.9083829598091218e-06 to 6.9083829598101221e-06 seconds.
Warning: Simulation tolerance relaxed to achieve convergence from 6.9083829598181249e-06 to 6.9083829598191252e-06 seconds.
Warning: Simulation tolerance relaxed to achieve convergence from 6.9083829598401325e-06 to 6.9083829598411329e-06 seconds.
Warning: Simulation tolerance relaxed to achieve convergence from 6.9083829598441339e-06 to 6.9083829598451342e-06 seconds.
Warning: Simulation tolerance relaxed to achieve convergence from 6.9083829598481353e-06 to 6.9083829598491356e-06 seconds.
Warning: Simulation tolerance relaxed to achieve convergence from 6.9083829598541373e-06 to 6.9083829598551377e-06 seconds.
Warning: Simulation tolerance relaxed to achieve convergence from 6.9083829598631405e-06 to 6.9083829598641408e-06 seconds.
Warning: Simulation tolerance relaxed to achieve convergence from 6.9083829598721436e-06 to 6.9083829598731439e-06 seconds.
Warning: Simulation tolerance relaxed to achieve convergence from 6.9083829598791460e-06 to 6.9083829598801463e-06 seconds.
Warning: Simulation tolerance relaxed to achieve convergence from 6.9083829598861484e-06 to 6.9083829598871488e-06 seconds.
Warning: Simulation tolerance relaxed to achieve convergence from 6.9083829598871488e-06 to 6.9083829598881491e-06 seconds.
Warning: Simulation tolerance relaxed to achieve convergence from 6.9083829598921505e-06 to 6.9083829598931508e-06 seconds.
Warning: Simulation tolerance relaxed to achieve convergence from 6.9083829599011536e-06 to 6.9083829599021540e-06 seconds.
Warning: Simulation tolerance relaxed to achieve convergence from 6.9083829599131578e-06 to 6.9083829599141581e-06 seconds.
Warning: Simulation tolerance relaxed to achieve convergence from 6.9083829599971868e-06 to 6.9083829599981872e-06 seconds.
Warning: Simulation tolerance relaxed to achieve convergence from 6.9083829600041892e-06 to 6.9083829600051896e-06 seconds.
Warning: Simulation tolerance relaxed to achieve convergence from 6.9083829600181941e-06 to 6.9083829600191944e-06 seconds.
Warning: Simulation tolerance relaxed to achieve convergence from 6.9083829600201948e-06 to 6.9083829600211951e-06 seconds.
Warning: Simulation tolerance relaxed to achieve convergence from 6.9083829600532062e-06 to 6.9083829600542065e-06 seconds.
Warning: Simulation tolerance relaxed to achieve convergence from 6.9083829600652103e-06 to 6.9083829600662107e-06 seconds.
Warning: Simulation tolerance relaxed to achieve convergence from 6.9083829600702121e-06 to 6.9083829600712124e-06 seconds.
Warning: Simulation tolerance relaxed to achieve convergence from 6.9083829600732131e-06 to 6.9083829600742134e-06 seconds.
Warning: Simulation tolerance relaxed to achieve convergence from 6.9083829600752138e-06 to 6.9083829600762141e-06 seconds.
Warning: Simulation tolerance relaxed to achieve convergence from 6.9083829600812159e-06 to 6.9083829600822162e-06 seconds.
Warning: Simulation tolerance relaxed to achieve convergence from 6.9083829601172283e-06 to 6.9083829601182287e-06 seconds.
Warning: Simulation tolerance relaxed to achieve convergence from 6.9083829601252311e-06 to 6.9083829601262314e-06 seconds.
Warning: Simulation tolerance relaxed to achieve convergence from 6.9083829601462384e-06 to 6.9083829601472387e-06 seconds.
Warning: Simulation tolerance relaxed to achieve convergence from 6.9083829601522404e-06 to 6.9083829601532408e-06 seconds.
Warning: Simulation tolerance relaxed to achieve convergence from 6.9083829601562418e-06 to 6.9083829601572422e-06 seconds.
Warning: Simulation tolerance relaxed to achieve convergence from 6.9083829601732477e-06 to 6.9083829601742480e-06 seconds.
Warning: Simulation tolerance relaxed to achieve convergence from 6.9083829602342688e-06 to 6.9083829602352691e-06 seconds.
Warning: Simulation tolerance relaxed to achieve convergence from 6.9083829602422716e-06 to 6.9083829602432719e-06 seconds.
Warning: Simulation tolerance relaxed to achieve convergence from 6.9083829602672802e-06 to 6.9083829602682806e-06 seconds.
Warning: Simulation tolerance relaxed to achieve convergence from 6.9083829602722819e-06 to 6.9083829602732823e-06 seconds.
Warning: Simulation tolerance relaxed to achieve convergence from 6.9083829602762833e-06 to 6.9083829602772837e-06 seconds.
Warning: Simulation tolerance relaxed to achieve convergence from 6.9083829602832857e-06 to 6.9083829602842861e-06 seconds.
Warning: Simulation tolerance relaxed to achieve convergence from 6.9083829602862868e-06 to 6.9083829602872871e-06 seconds.
Warning: Simulation tolerance relaxed to achieve convergence from 6.9083829602962902e-06 to 6.9083829602972906e-06 seconds.
Warning: Simulation tolerance relaxed to achieve convergence from 6.9083829603002916e-06 to 6.9083829603012920e-06 seconds.
Warning: Simulation tolerance relaxed to achieve convergence from 6.9083829603222992e-06 to 6.9083829603232996e-06 seconds.
Warning: Simulation tolerance relaxed to achieve convergence from 6.9083829603283013e-06 to 6.9083829603293017e-06 seconds.
Warning: Simulation tolerance relaxed to achieve convergence from 6.9083829603473079e-06 to 6.9083829603483082e-06 seconds.
Warning: Simulation tolerance relaxed to achieve convergence from 6.9083829603663145e-06 to 6.9083829603673148e-06 seconds.
Warning: Simulation tolerance relaxed to achieve convergence from 6.9083829603683151e-06 to 6.9083829603693155e-06 seconds.
Warning: Simulation tolerance relaxed to achieve convergence from 6.9083829604253349e-06 to 6.9083829604263352e-06 seconds.
Warning: Simulation tolerance relaxed to achieve convergence from 6.9083829604273356e-06 to 6.9083829604283359e-06 seconds.
Warning: Simulation tolerance relaxed to achieve convergence from 6.9083829604513439e-06 to 6.9083829604523442e-06 seconds.
Warning: Simulation tolerance relaxed to achieve convergence from 6.9083829605063629e-06 to 6.9083829605073632e-06 seconds.
Warning: Simulation tolerance relaxed to achieve convergence from 6.9083829605123650e-06 to 6.9083829605133653e-06 seconds.
Warning: Simulation tolerance relaxed to achieve convergence from 6.9083829605303712e-06 to 6.9083829605313715e-06 seconds.
Warning: Simulation tolerance relaxed to achieve convergence from 6.9083829605353729e-06 to 6.9083829605363733e-06 seconds.
Warning: Simulation tolerance relaxed to achieve convergence from 6.9083829605473771e-06 to 6.9083829605483774e-06 seconds.
Warning: Simulation tolerance relaxed to achieve convergence from 6.9083829605573805e-06 to 6.9083829605583809e-06 seconds.
Warning: Simulation tolerance relaxed to achieve convergence from 6.9083829605623823e-06 to 6.9083829605633826e-06 seconds.
Warning: Simulation tolerance relaxed to achieve convergence from 6.9083829605743864e-06 to 6.9083829605753868e-06 seconds.
Warning: Simulation tolerance relaxed to achieve convergence from 6.9083829606083982e-06 to 6.9083829606093985e-06 seconds.
Warning: Simulation tolerance relaxed to achieve convergence from 6.9083829606274047e-06 to 6.9083829606284051e-06 seconds.
Warning: Simulation tolerance relaxed to achieve convergence from 6.9083829606314061e-06 to 6.9083829606324065e-06 seconds.
Warning: Simulation tolerance relaxed to achieve convergence from 6.9083829606604162e-06 to 6.9083829606614165e-06 seconds.
Warning: Simulation tolerance relaxed to achieve convergence from 6.9083829606684189e-06 to 6.9083829606694193e-06 seconds.
Warning: Simulation tolerance relaxed to achieve convergence from 6.9083829606884258e-06 to 6.9083829606894262e-06 seconds.
Warning: Simulation tolerance relaxed to achieve convergence from 6.9083829607074324e-06 to 6.9083829607084328e-06 seconds.
Warning: Simulation tolerance relaxed to achieve convergence from 6.9083829607204369e-06 to 6.9083829607214373e-06 seconds.
Warning: Simulation tolerance relaxed to achieve convergence from 6.9083829607214373e-06 to 6.9083829607224376e-06 seconds.
Warning: Simulation tolerance relaxed to achieve convergence from 6.9083829607244383e-06 to 6.9083829607254386e-06 seconds.
Warning: Simulation tolerance relaxed to achieve convergence from 6.9083829607334414e-06 to 6.9083829607344418e-06 seconds.
Warning: Simulation tolerance relaxed to achieve convergence from 6.9083829607494469e-06 to 6.9083829607504473e-06 seconds.
Warning: Simulation tolerance relaxed to achieve convergence from 6.9083829607554490e-06 to 6.9083829607564494e-06 seconds.
Warning: Simulation tolerance relaxed to achieve convergence from 6.9083829607684535e-06 to 6.9083829607694539e-06 seconds.
Warning: Simulation tolerance relaxed to achieve convergence from 6.9083829608184708e-06 to 6.9083829608194712e-06 seconds.
Warning: Simulation tolerance relaxed to achieve convergence from 6.9083829608414788e-06 to 6.9083829608424791e-06 seconds.
Warning: Simulation tolerance relaxed to achieve convergence from 6.9083829608474808e-06 to 6.9083829608484812e-06 seconds.
Warning: Simulation tolerance relaxed to achieve convergence from 6.9083829608534829e-06 to 6.9083829608544833e-06 seconds.
Warning: Simulation tolerance relaxed to achieve convergence from 6.9083829608554836e-06 to 6.9083829608564840e-06 seconds.
Warning: Simulation tolerance relaxed to achieve convergence from 6.9083829608634864e-06 to 6.9083829608644867e-06 seconds.
Warning: Simulation tolerance relaxed to achieve convergence from 6.9083829608884950e-06 to 6.9083829608894954e-06 seconds.
Warning: Simulation tolerance relaxed to achieve convergence from 6.9083829609315099e-06 to 6.9083829609325102e-06 seconds.
Warning: Simulation tolerance relaxed to achieve convergence from 6.9083829609465151e-06 to 6.9083829609475154e-06 seconds.
Warning: Simulation tolerance relaxed to achieve convergence from 6.9083829609585192e-06 to 6.9083829609595196e-06 seconds.
Warning: Simulation tolerance relaxed to achieve convergence from 6.9083829610375466e-06 to 6.9083829610385469e-06 seconds.
Warning: Simulation tolerance relaxed to achieve convergence from 6.9083829610425483e-06 to 6.9083829610435486e-06 seconds.
Warning: Simulation tolerance relaxed to achieve convergence from 6.9083829610475500e-06 to 6.9083829610485504e-06 seconds.
Warning: Simulation tolerance relaxed to achieve convergence from 6.9083829610625552e-06 to 6.9083829610635556e-06 seconds.
Warning: Simulation tolerance relaxed to achieve convergence from 6.9083829610665566e-06 to 6.9083829610675569e-06 seconds.
Warning: Simulation tolerance relaxed to achieve convergence from 6.9083829610745594e-06 to 6.9083829610755597e-06 seconds.
Warning: Simulation tolerance relaxed to achieve convergence from 6.9083829610945663e-06 to 6.9083829610955666e-06 seconds.
Warning: Simulation tolerance relaxed to achieve convergence from 6.9083829611065704e-06 to 6.9083829611075708e-06 seconds.
Warning: Simulation tolerance relaxed to achieve convergence from 6.9083829611085711e-06 to 6.9083829611095715e-06 seconds.
Warning: Simulation tolerance relaxed to achieve convergence from 6.9083829611115722e-06 to 6.9083829611125725e-06 seconds.
Warning: Simulation tolerance relaxed to achieve convergence from 6.9083829611345801e-06 to 6.9083829611355805e-06 seconds.
Warning: Simulation tolerance relaxed to achieve convergence from 6.9083829611685919e-06 to 6.9083829611695922e-06 seconds.
Warning: Simulation tolerance relaxed to achieve convergence from 6.9083829611785953e-06 to 6.9083829611795957e-06 seconds.
Warning: Simulation tolerance relaxed to achieve convergence from 6.9083829611845974e-06 to 6.9083829611855978e-06 seconds.
Warning: Simulation tolerance relaxed to achieve convergence from 6.9083829611885988e-06 to 6.9083829611895991e-06 seconds.
Warning: Simulation tolerance relaxed to achieve convergence from 6.9083829612166085e-06 to 6.9083829612176088e-06 seconds.
Warning: Simulation tolerance relaxed to achieve convergence from 6.9083829612176088e-06 to 6.9083829612186092e-06 seconds.
Warning: Simulation tolerance relaxed to achieve convergence from 6.9083829612246112e-06 to 6.9083829612256116e-06 seconds.
Warning: Simulation tolerance relaxed to achieve convergence from 6.9083829612376157e-06 to 6.9083829612386161e-06 seconds.
Warning: Simulation tolerance relaxed to achieve convergence from 6.9083829612866327e-06 to 6.9083829612876330e-06 seconds.
Warning: Simulation tolerance relaxed to achieve convergence from 6.9083829613266465e-06 to 6.9083829613276469e-06 seconds.
Warning: Simulation tolerance relaxed to achieve convergence from 6.9083829613426521e-06 to 6.9083829613436524e-06 seconds.
Warning: Simulation tolerance relaxed to achieve convergence from 6.9083829613466534e-06 to 6.9083829613476538e-06 seconds.
Warning: Simulation tolerance relaxed to achieve convergence from 6.9083829613776642e-06 to 6.9083829613786645e-06 seconds.
Warning: Simulation tolerance relaxed to achieve convergence from 6.9083829613846666e-06 to 6.9083829613856669e-06 seconds.
Warning: Simulation tolerance relaxed to achieve convergence from 6.9083829613886680e-06 to 6.9083829613896683e-06 seconds.
Warning: Simulation tolerance relaxed to achieve convergence from 6.9083829613916690e-06 to 6.9083829613926694e-06 seconds.
Warning: Simulation tolerance relaxed to achieve convergence from 6.9083829614116759e-06 to 6.9083829614126763e-06 seconds.
Warning: Simulation tolerance relaxed to achieve convergence from 6.9083829614446873e-06 to 6.9083829614456877e-06 seconds.
Warning: Simulation tolerance relaxed to achieve convergence from 6.9083829614476884e-06 to 6.9083829614486887e-06 seconds.
Warning: Simulation tolerance relaxed to achieve convergence from 6.9083829614536905e-06 to 6.9083829614546908e-06 seconds.
Warning: Simulation tolerance relaxed to achieve convergence from 6.9083829614716967e-06 to 6.9083829614726970e-06 seconds.
Warning: Simulation tolerance relaxed to achieve convergence from 6.9083829614796995e-06 to 6.9083829614806998e-06 seconds.
Warning: Simulation tolerance relaxed to achieve convergence from 6.9083829615357188e-06 to 6.9083829615367192e-06 seconds.
Warning: Simulation tolerance relaxed to achieve convergence from 6.9083829615607275e-06 to 6.9083829615617278e-06 seconds.
Warning: Simulation tolerance relaxed to achieve convergence from 6.9083829615647289e-06 to 6.9083829615657292e-06 seconds.
Warning: Simulation tolerance relaxed to achieve convergence from 6.9083829615687302e-06 to 6.9083829615697306e-06 seconds.
Warning: Simulation tolerance relaxed to achieve convergence from 6.9083829615707309e-06 to 6.9083829615717313e-06 seconds.
Warning: Simulation tolerance relaxed to achieve convergence from 6.9083829615877368e-06 to 6.9083829615887372e-06 seconds.
Warning: Simulation tolerance relaxed to achieve convergence from 6.9083829615917382e-06 to 6.9083829615927385e-06 seconds.
Warning: Simulation tolerance relaxed to achieve convergence from 6.9083829615967399e-06 to 6.9083829615977403e-06 seconds.
Warning: Simulation tolerance relaxed to achieve convergence from 6.9083829616017417e-06 to 6.9083829616027420e-06 seconds.
Warning: Simulation tolerance relaxed to achieve convergence from 6.9083829616057430e-06 to 6.9083829616067434e-06 seconds.
Warning: Simulation tolerance relaxed to achieve convergence from 6.9083829616397548e-06 to 6.9083829616407551e-06 seconds.
Warning: Simulation tolerance relaxed to achieve convergence from 6.9083829616497583e-06 to 6.9083829616507586e-06 seconds.
Warning: Simulation tolerance relaxed to achieve convergence from 6.9083829616637631e-06 to 6.9083829616647634e-06 seconds.
Warning: Simulation tolerance relaxed to achieve convergence from 6.9083829617768022e-06 to 6.9083829617778025e-06 seconds.
Warning: Simulation tolerance relaxed to achieve convergence from 6.9083829617948084e-06 to 6.9083829617958088e-06 seconds.
Warning: Simulation tolerance relaxed to achieve convergence from 6.9083829617978095e-06 to 6.9083829617988098e-06 seconds.
Warning: Simulation tolerance relaxed to achieve convergence from 6.9083829617988098e-06 to 6.9083829617998101e-06 seconds.
Warning: Simulation tolerance relaxed to achieve convergence from 6.9083829618028112e-06 to 6.9083829618038115e-06 seconds.
Warning: Simulation tolerance relaxed to achieve convergence from 6.9083829618078129e-06 to 6.9083829618088133e-06 seconds.
Warning: Simulation tolerance relaxed to achieve convergence from 6.9083829618598309e-06 to 6.9083829618608312e-06 seconds.
Warning: Simulation tolerance relaxed to achieve convergence from 6.9083829618788375e-06 to 6.9083829618798378e-06 seconds.
Warning: Simulation tolerance relaxed to achieve convergence from 6.9083829618848395e-06 to 6.9083829618858399e-06 seconds.
Warning: Simulation tolerance relaxed to achieve convergence from 6.9083829619078475e-06 to 6.9083829619088478e-06 seconds.
Warning: Simulation tolerance relaxed to achieve convergence from 6.9083829619178510e-06 to 6.9083829619188513e-06 seconds.
Warning: Simulation tolerance relaxed to achieve convergence from 6.9083829619278544e-06 to 6.9083829619288548e-06 seconds.
Warning: Simulation tolerance relaxed to achieve convergence from 6.9083829619338565e-06 to 6.9083829619348568e-06 seconds.
Warning: Simulation tolerance relaxed to achieve convergence from 6.9083829619398586e-06 to 6.9083829619408589e-06 seconds.
Warning: Simulation tolerance relaxed to achieve convergence from 6.9083829619458606e-06 to 6.9083829619468610e-06 seconds.
Warning: Simulation tolerance relaxed to achieve convergence from 6.9083829619478613e-06 to 6.9083829619488617e-06 seconds.
Warning: Simulation tolerance relaxed to achieve convergence from 6.9083829619508624e-06 to 6.9083829619518627e-06 seconds.
Warning: Simulation tolerance relaxed to achieve convergence from 6.9083829619888755e-06 to 6.9083829619898759e-06 seconds.
Warning: Simulation tolerance relaxed to achieve convergence from 6.9083829620038807e-06 to 6.9083829620048811e-06 seconds.
Warning: Simulation tolerance relaxed to achieve convergence from 6.9083829620218869e-06 to 6.9083829620228873e-06 seconds.
Warning: Simulation tolerance relaxed to achieve convergence from 6.9083829620498966e-06 to 6.9083829620508970e-06 seconds.
Warning: Simulation tolerance relaxed to achieve convergence from 6.9083829620578994e-06 to 6.9083829620588997e-06 seconds.
Warning: Simulation tolerance relaxed to achieve convergence from 6.9083829620939118e-06 to 6.9083829620949122e-06 seconds.
Warning: Simulation tolerance relaxed to achieve convergence from 6.9083829621059160e-06 to 6.9083829621069163e-06 seconds.
Warning: Simulation tolerance relaxed to achieve convergence from 6.9083829621219215e-06 to 6.9083829621229219e-06 seconds.
Warning: Simulation tolerance relaxed to achieve convergence from 6.9083829621289239e-06 to 6.9083829621299243e-06 seconds.
Warning: Simulation tolerance relaxed to achieve convergence from 6.9083829621479305e-06 to 6.9083829621489309e-06 seconds.
Warning: Simulation tolerance relaxed to achieve convergence from 6.9083829621529323e-06 to 6.9083829621539326e-06 seconds.
Warning: Simulation tolerance relaxed to achieve convergence from 6.9083829621619354e-06 to 6.9083829621629357e-06 seconds.
Warning: Simulation tolerance relaxed to achieve convergence from 6.9083829621759402e-06 to 6.9083829621769406e-06 seconds.
Warning: Simulation tolerance relaxed to achieve convergence from 6.9083829621849433e-06 to 6.9083829621859437e-06 seconds.
Warning: Simulation tolerance relaxed to achieve convergence from 6.9083829621869440e-06 to 6.9083829621879444e-06 seconds.
Warning: Simulation tolerance relaxed to achieve convergence from 6.9083829621919457e-06 to 6.9083829621929461e-06 seconds.
Warning: Simulation tolerance relaxed to achieve convergence from 6.9083829622179547e-06 to 6.9083829622189551e-06 seconds.
Warning: Simulation tolerance relaxed to achieve convergence from 6.9083829622229565e-06 to 6.9083829622239568e-06 seconds.
Warning: Simulation tolerance relaxed to achieve convergence from 6.9083829622299589e-06 to 6.9083829622309592e-06 seconds.
Warning: Simulation tolerance relaxed to achieve convergence from 6.9083829622489655e-06 to 6.9083829622499658e-06 seconds.
Warning: Simulation tolerance relaxed to achieve convergence from 6.9083829622539672e-06 to 6.9083829622549675e-06 seconds.
Warning: Simulation tolerance relaxed to achieve convergence from 6.9083829622759748e-06 to 6.9083829622769751e-06 seconds.
Warning: Simulation tolerance relaxed to achieve convergence from 6.9083829622769751e-06 to 6.9083829622779755e-06 seconds.
Warning: Simulation tolerance relaxed to achieve convergence from 6.9083829622909800e-06 to 6.9083829622919803e-06 seconds.
Warning: Simulation tolerance relaxed to achieve convergence from 6.9083829622929807e-06 to 6.9083829622939810e-06 seconds.
Warning: Simulation tolerance relaxed to achieve convergence from 6.9083829623019838e-06 to 6.9083829623029841e-06 seconds.
Warning: Simulation tolerance relaxed to achieve convergence from 6.9083829623139879e-06 to 6.9083829623149883e-06 seconds.
Warning: Simulation tolerance relaxed to achieve convergence from 6.9083829623189897e-06 to 6.9083829623199900e-06 seconds.
Warning: Simulation tolerance relaxed to achieve convergence from 6.9083829623279928e-06 to 6.9083829623289931e-06 seconds.
Warning: Simulation tolerance relaxed to achieve convergence from 6.9083829623680066e-06 to 6.9083829623690070e-06 seconds.
Warning: Simulation tolerance relaxed to achieve convergence from 6.9083829623880135e-06 to 6.9083829623890139e-06 seconds.
Warning: Simulation tolerance relaxed to achieve convergence from 6.9083829624250263e-06 to 6.9083829624260267e-06 seconds.
Warning: Simulation tolerance relaxed to achieve convergence from 6.9083829624300281e-06 to 6.9083829624310284e-06 seconds.
Warning: Simulation tolerance relaxed to achieve convergence from 6.9083829624360301e-06 to 6.9083829624370305e-06 seconds.
Warning: Simulation tolerance relaxed to achieve convergence from 6.9083829624430326e-06 to 6.9083829624440329e-06 seconds.
Warning: Simulation tolerance relaxed to achieve convergence from 6.9083829624440329e-06 to 6.9083829624450333e-06 seconds.
Warning: Simulation tolerance relaxed to achieve convergence from 6.9083829624470339e-06 to 6.9083829624480343e-06 seconds.
Warning: Simulation tolerance relaxed to achieve convergence from 6.9083829624940502e-06 to 6.9083829624950506e-06 seconds.
Warning: Simulation tolerance relaxed to achieve convergence from 6.9083829625200592e-06 to 6.9083829625210595e-06 seconds.
Warning: Simulation tolerance relaxed to achieve convergence from 6.9083829625250609e-06 to 6.9083829625260613e-06 seconds.
Warning: Simulation tolerance relaxed to achieve convergence from 6.9083829625310630e-06 to 6.9083829625320634e-06 seconds.
Warning: Simulation tolerance relaxed to achieve convergence from 6.9083829625410665e-06 to 6.9083829625420668e-06 seconds.
Warning: Simulation tolerance relaxed to achieve convergence from 6.9083829625450678e-06 to 6.9083829625460682e-06 seconds.
Warning: Simulation tolerance relaxed to achieve convergence from 6.9083829625630741e-06 to 6.9083829625640744e-06 seconds.
Warning: Simulation tolerance relaxed to achieve convergence from 6.9083829625830810e-06 to 6.9083829625840813e-06 seconds.
Warning: Simulation tolerance relaxed to achieve convergence from 6.9083829626581069e-06 to 6.9083829626591073e-06 seconds.
Warning: Simulation tolerance relaxed to achieve convergence from 6.9083829626621083e-06 to 6.9083829626631087e-06 seconds.
Warning: Simulation tolerance relaxed to achieve convergence from 6.9083829626681104e-06 to 6.9083829626691107e-06 seconds.
Warning: Simulation tolerance relaxed to achieve convergence from 6.9083829626851163e-06 to 6.9083829626861166e-06 seconds.
Warning: Simulation tolerance relaxed to achieve convergence from 6.9083829626961201e-06 to 6.9083829626971204e-06 seconds.
Warning: Simulation tolerance relaxed to achieve convergence from 6.9083829627091246e-06 to 6.9083829627101249e-06 seconds.
Warning: Simulation tolerance relaxed to achieve convergence from 6.9083829627161270e-06 to 6.9083829627171273e-06 seconds.
Warning: Simulation tolerance relaxed to achieve convergence from 6.9083829627201284e-06 to 6.9083829627211287e-06 seconds.
Warning: Simulation tolerance relaxed to achieve convergence from 6.9083829627331329e-06 to 6.9083829627341332e-06 seconds.
Warning: Simulation tolerance relaxed to achieve convergence from 6.9083829627401353e-06 to 6.9083829627411356e-06 seconds.
Warning: Simulation tolerance relaxed to achieve convergence from 6.9083829627431363e-06 to 6.9083829627441367e-06 seconds.
Warning: Simulation tolerance relaxed to achieve convergence from 6.9083829627631433e-06 to 6.9083829627641436e-06 seconds.
Warning: Simulation tolerance relaxed to achieve convergence from 6.9083829627741471e-06 to 6.9083829627751474e-06 seconds.
Warning: Simulation tolerance relaxed to achieve convergence from 6.9083829627761478e-06 to 6.9083829627771481e-06 seconds.
Warning: Simulation tolerance relaxed to achieve convergence from 6.9083829628041574e-06 to 6.9083829628051578e-06 seconds.
Warning: Simulation tolerance relaxed to achieve convergence from 6.9083829628211633e-06 to 6.9083829628221637e-06 seconds.
Warning: Simulation tolerance relaxed to achieve convergence from 6.9083829628701803e-06 to 6.9083829628711806e-06 seconds.
Warning: Simulation tolerance relaxed to achieve convergence from 6.9083829628771827e-06 to 6.9083829628781830e-06 seconds.
Warning: Simulation tolerance relaxed to achieve convergence from 6.9083829629101941e-06 to 6.9083829629111945e-06 seconds.
Warning: Simulation tolerance relaxed to achieve convergence from 6.9083829629161962e-06 to 6.9083829629171965e-06 seconds.
Warning: Simulation tolerance relaxed to achieve convergence from 6.9083829629322017e-06 to 6.9083829629332021e-06 seconds.
Warning: Simulation tolerance relaxed to achieve convergence from 6.9083829629522086e-06 to 6.9083829629532090e-06 seconds.
Warning: Simulation tolerance relaxed to achieve convergence from 6.9083829629782176e-06 to 6.9083829629792180e-06 seconds.
Warning: Simulation tolerance relaxed to achieve convergence from 6.9083829630132297e-06 to 6.9083829630142301e-06 seconds.
Warning: Simulation tolerance relaxed to achieve convergence from 6.9083829630202322e-06 to 6.9083829630212325e-06 seconds.
Warning: Simulation tolerance relaxed to achieve convergence from 6.9083829630892560e-06 to 6.9083829630902564e-06 seconds.
Warning: Simulation tolerance relaxed to achieve convergence from 6.9083829631002598e-06 to 6.9083829631012602e-06 seconds.
Warning: Simulation tolerance relaxed to achieve convergence from 6.9083829631272692e-06 to 6.9083829631282695e-06 seconds.
Warning: Simulation tolerance relaxed to achieve convergence from 6.9083829631332712e-06 to 6.9083829631342716e-06 seconds.
Warning: Simulation tolerance relaxed to achieve convergence from 6.9083829631352719e-06 to 6.9083829631362723e-06 seconds.
Warning: Simulation tolerance relaxed to achieve convergence from 6.9083829631452754e-06 to 6.9083829631462757e-06 seconds.
Warning: Simulation tolerance relaxed to achieve convergence from 6.9083829631492768e-06 to 6.9083829631502771e-06 seconds.
Warning: Simulation tolerance relaxed to achieve convergence from 6.9083829631612809e-06 to 6.9083829631622813e-06 seconds.
Warning: Simulation tolerance relaxed to achieve convergence from 6.9083829631792872e-06 to 6.9083829631802875e-06 seconds.
Warning: Simulation tolerance relaxed to achieve convergence from 6.9083829631822882e-06 to 6.9083829631832885e-06 seconds.
Warning: Simulation tolerance relaxed to achieve convergence from 6.9083829631832885e-06 to 6.9083829631842889e-06 seconds.
Warning: Simulation tolerance relaxed to achieve convergence from 6.9083829631922917e-06 to 6.9083829631932920e-06 seconds.
Warning: Simulation tolerance relaxed to achieve convergence from 6.9083829631952927e-06 to 6.9083829631962930e-06 seconds.
Warning: Simulation tolerance relaxed to achieve convergence from 6.9083829632132989e-06 to 6.9083829632142993e-06 seconds.
Warning: Simulation tolerance relaxed to achieve convergence from 6.9083829632163000e-06 to 6.9083829632173003e-06 seconds.
Warning: Simulation tolerance relaxed to achieve convergence from 6.9083829632253031e-06 to 6.9083829632263034e-06 seconds.
Warning: Simulation tolerance relaxed to achieve convergence from 6.9083829632443096e-06 to 6.9083829632453100e-06 seconds.
Warning: Simulation tolerance relaxed to achieve convergence from 6.9083829632603152e-06 to 6.9083829632613155e-06 seconds.
Warning: Simulation tolerance relaxed to achieve convergence from 6.9083829633013294e-06 to 6.9083829633023297e-06 seconds.
Warning: Simulation tolerance relaxed to achieve convergence from 6.9083829633043304e-06 to 6.9083829633053307e-06 seconds.
Warning: Simulation tolerance relaxed to achieve convergence from 6.9083829633063311e-06 to 6.9083829633073314e-06 seconds.
Warning: Simulation tolerance relaxed to achieve convergence from 6.9083829633173349e-06 to 6.9083829633183352e-06 seconds.
Warning: Simulation tolerance relaxed to achieve convergence from 6.9083829633363415e-06 to 6.9083829633373418e-06 seconds.
Warning: Simulation tolerance relaxed to achieve convergence from 6.9083829633403428e-06 to 6.9083829633413432e-06 seconds.
Warning: Simulation tolerance relaxed to achieve convergence from 6.9083829633623505e-06 to 6.9083829633633508e-06 seconds.
Warning: Simulation tolerance relaxed to achieve convergence from 6.9083829633723539e-06 to 6.9083829633733543e-06 seconds.
Warning: Simulation tolerance relaxed to achieve convergence from 6.9083829633803567e-06 to 6.9083829633813570e-06 seconds.
Warning: Simulation tolerance relaxed to achieve convergence from 6.9083829633903601e-06 to 6.9083829633913605e-06 seconds.
Warning: Simulation tolerance relaxed to achieve convergence from 6.9083829633973626e-06 to 6.9083829633983629e-06 seconds.
Warning: Simulation tolerance relaxed to achieve convergence from 6.9083829634073660e-06 to 6.9083829634083664e-06 seconds.
Warning: Simulation tolerance relaxed to achieve convergence from 6.9083829634223712e-06 to 6.9083829634233716e-06 seconds.
Warning: Simulation tolerance relaxed to achieve convergence from 6.9083829634253722e-06 to 6.9083829634263726e-06 seconds.
Warning: Simulation tolerance relaxed to achieve convergence from 6.9083829634333750e-06 to 6.9083829634343754e-06 seconds.
Warning: Simulation tolerance relaxed to achieve convergence from 6.9083829634363761e-06 to 6.9083829634373764e-06 seconds.
Warning: Simulation tolerance relaxed to achieve convergence from 6.9083829634623850e-06 to 6.9083829634633854e-06 seconds.
Warning: Simulation tolerance relaxed to achieve convergence from 6.9083829634763899e-06 to 6.9083829634773902e-06 seconds.
Warning: Simulation tolerance relaxed to achieve convergence from 6.9083829634813916e-06 to 6.9083829634823920e-06 seconds.
Warning: Simulation tolerance relaxed to achieve convergence from 6.9083829634903947e-06 to 6.9083829634913951e-06 seconds.
Warning: Simulation tolerance relaxed to achieve convergence from 6.9083829635023989e-06 to 6.9083829635033992e-06 seconds.
Warning: Simulation tolerance relaxed to achieve convergence from 6.9083829635194048e-06 to 6.9083829635204051e-06 seconds.
Warning: Simulation tolerance relaxed to achieve convergence from 6.9083829635264072e-06 to 6.9083829635274075e-06 seconds.
Warning: Simulation tolerance relaxed to achieve convergence from 6.9083829635364106e-06 to 6.9083829635374110e-06 seconds.
Warning: Simulation tolerance relaxed to achieve convergence from 6.9083829635514158e-06 to 6.9083829635524162e-06 seconds.
Warning: Simulation tolerance relaxed to achieve convergence from 6.9083829635734234e-06 to 6.9083829635744238e-06 seconds.
Warning: Simulation tolerance relaxed to achieve convergence from 6.9083829635754241e-06 to 6.9083829635764245e-06 seconds.
Warning: Simulation tolerance relaxed to achieve convergence from 6.9083829635854276e-06 to 6.9083829635864279e-06 seconds.
Warning: Simulation tolerance relaxed to achieve convergence from 6.9083829635914297e-06 to 6.9083829635924300e-06 seconds.
Warning: Simulation tolerance relaxed to achieve convergence from 6.9083829635984321e-06 to 6.9083829635994324e-06 seconds.
Warning: Simulation tolerance relaxed to achieve convergence from 6.9083829636034338e-06 to 6.9083829636044342e-06 seconds.
Warning: Simulation tolerance relaxed to achieve convergence from 6.9083829636194394e-06 to 6.9083829636204397e-06 seconds.
Warning: Simulation tolerance relaxed to achieve convergence from 6.9083829636254414e-06 to 6.9083829636264418e-06 seconds.
Warning: Simulation tolerance relaxed to achieve convergence from 6.9083829636314435e-06 to 6.9083829636324439e-06 seconds.
Warning: Simulation tolerance relaxed to achieve convergence from 6.9083829636384459e-06 to 6.9083829636394463e-06 seconds.
Warning: Simulation tolerance relaxed to achieve convergence from 6.9083829636454484e-06 to 6.9083829636464487e-06 seconds.
Warning: Simulation tolerance relaxed to achieve convergence from 6.9083829636534511e-06 to 6.9083829636544515e-06 seconds.
Warning: Simulation tolerance relaxed to achieve convergence from 6.9083829636554518e-06 to 6.9083829636564522e-06 seconds.
Warning: Simulation tolerance relaxed to achieve convergence from 6.9083829636634546e-06 to 6.9083829636644549e-06 seconds.
Warning: Simulation tolerance relaxed to achieve convergence from 6.9083829636684563e-06 to 6.9083829636694567e-06 seconds.
Warning: Simulation tolerance relaxed to achieve convergence from 6.9083829636734580e-06 to 6.9083829636744584e-06 seconds.
Warning: Simulation tolerance relaxed to achieve convergence from 6.9083829636924646e-06 to 6.9083829636934650e-06 seconds.
Warning: Simulation tolerance relaxed to achieve convergence from 6.9083829637054691e-06 to 6.9083829637064695e-06 seconds.
Warning: Simulation tolerance relaxed to achieve convergence from 6.9083829637104708e-06 to 6.9083829637114712e-06 seconds.
Warning: Simulation tolerance relaxed to achieve convergence from 6.9083829637144722e-06 to 6.9083829637154726e-06 seconds.
Warning: Simulation tolerance relaxed to achieve convergence from 6.9083829637154726e-06 to 6.9083829637164729e-06 seconds.
Warning: Simulation tolerance relaxed to achieve convergence from 6.9083829637224750e-06 to 6.9083829637234753e-06 seconds.
Warning: Simulation tolerance relaxed to achieve convergence from 6.9083829637484840e-06 to 6.9083829637494843e-06 seconds.
Warning: Simulation tolerance relaxed to achieve convergence from 6.9083829638055037e-06 to 6.9083829638065040e-06 seconds.
Warning: Simulation tolerance relaxed to achieve convergence from 6.9083829638125061e-06 to 6.9083829638135065e-06 seconds.
Warning: Simulation tolerance relaxed to achieve convergence from 6.9083829638385151e-06 to 6.9083829638395155e-06 seconds.
Warning: Simulation tolerance relaxed to achieve convergence from 6.9083829638845310e-06 to 6.9083829638855314e-06 seconds.
Warning: Simulation tolerance relaxed to achieve convergence from 6.9083829638905331e-06 to 6.9083829638915334e-06 seconds.
Warning: Simulation tolerance relaxed to achieve convergence from 6.9083829638985359e-06 to 6.9083829638995362e-06 seconds.
Warning: Simulation tolerance relaxed to achieve convergence from 6.9083829639185428e-06 to 6.9083829639195431e-06 seconds.
Warning: Simulation tolerance relaxed to achieve convergence from 6.9083829639305469e-06 to 6.9083829639315473e-06 seconds.
Warning: Simulation tolerance relaxed to achieve convergence from 6.9083829639335480e-06 to 6.9083829639345483e-06 seconds.
Warning: Simulation tolerance relaxed to achieve convergence from 6.9083829639345483e-06 to 6.9083829639355487e-06 seconds.
Warning: Simulation tolerance relaxed to achieve convergence from 6.9083829639525545e-06 to 6.9083829639535549e-06 seconds.
Warning: Simulation tolerance relaxed to achieve convergence from 6.9083829639705608e-06 to 6.9083829639715611e-06 seconds.
Warning: Simulation tolerance relaxed to achieve convergence from 6.9083829639775632e-06 to 6.9083829639785635e-06 seconds.
Warning: Simulation tolerance relaxed to achieve convergence from 6.9083829639825649e-06 to 6.9083829639835653e-06 seconds.
[...]
Warning: Simulation tolerance relaxed to achieve convergence from 6.9083829956285078e-06 to 6.9083829956295082e-06 seconds.
Warning: Simulation tolerance relaxed to achieve convergence from 6.9083829956395116e-06 to 6.9083829956405120e-06 seconds.
Warning: Simulation tolerance relaxed to achieve convergence from 6.9083829956425127e-06 to 6.9083829956435130e-06 seconds.
Warning: Simulation tolerance relaxed to achieve convergence from 6.9083829956445133e-06 to 6.9083829956455137e-06 seconds.
Warning: Simulation tolerance relaxed to achieve convergence from 6.9083829956455137e-06 to 6.9083829956465140e-06 seconds.
Warning: Simulation tolerance relaxed to achieve convergence from 6.9083829956465140e-06 to 6.9083829956475144e-06 seconds.
Warning: Simulation tolerance relaxed to achieve convergence from 6.9083829956505154e-06 to 6.9083829956515158e-06 seconds.
Warning: Simulation tolerance relaxed to achieve convergence from 6.9083829956645203e-06 to 6.9083829956655206e-06 seconds.
Warning: Simulation tolerance relaxed to achieve convergence from 6.9083829956815261e-06 to 6.9083829956825265e-06 seconds.
Warning: Simulation tolerance relaxed to achieve convergence from 6.9083829956945306e-06 to 6.9083829956955310e-06 seconds.
Warning: Simulation tolerance relaxed to achieve convergence from 6.9083829956975317e-06 to 6.9083829956985320e-06 seconds.
Warning: Simulation tolerance relaxed to achieve convergence from 6.9083829957065348e-06 to 6.9083829957075351e-06 seconds.
Warning: Simulation tolerance relaxed to achieve convergence from 6.9083829957455483e-06 to 6.9083829957465486e-06 seconds.
Warning: Simulation tolerance relaxed to achieve convergence from 6.9083829957515504e-06 to 6.9083829957525507e-06 seconds.
Warning: Simulation tolerance relaxed to achieve convergence from 6.9083829957715573e-06 to 6.9083829957725576e-06 seconds.
Warning: Simulation tolerance relaxed to achieve convergence from 6.9083829957755587e-06 to 6.9083829957765590e-06 seconds.
Warning: Simulation tolerance relaxed to achieve convergence from 6.9083829957975663e-06 to 6.9083829957985666e-06 seconds.
Warning: Simulation tolerance relaxed to achieve convergence from 6.9083829958005673e-06 to 6.9083829958015676e-06 seconds.
Warning: Simulation tolerance relaxed to achieve convergence from 6.9083829958045687e-06 to 6.9083829958055690e-06 seconds.
Warning: Simulation tolerance relaxed to achieve convergence from 6.9083829958075697e-06 to 6.9083829958085701e-06 seconds.
Warning: Simulation tolerance relaxed to achieve convergence from 6.9083829958165728e-06 to 6.9083829958175732e-06 seconds.
Warning: Simulation tolerance relaxed to achieve convergence from 6.9083829958335787e-06 to 6.9083829958345791e-06 seconds.
Warning: Simulation tolerance relaxed to achieve convergence from 6.9083829958435822e-06 to 6.9083829958445825e-06 seconds.
Warning: Simulation tolerance relaxed to achieve convergence from 6.9083829958525853e-06 to 6.9083829958535856e-06 seconds.
Warning: Simulation tolerance relaxed to achieve convergence from 6.9083829958535856e-06 to 6.9083829958545860e-06 seconds.
Warning: Simulation tolerance relaxed to achieve convergence from 6.9083829958565867e-06 to 6.9083829958575870e-06 seconds.
Warning: Simulation tolerance relaxed to achieve convergence from 6.9083829958795946e-06 to 6.9083829958805950e-06 seconds.
Warning: Simulation tolerance relaxed to achieve convergence from 6.9083829958825957e-06 to 6.9083829958835960e-06 seconds.
Warning: Simulation tolerance relaxed to achieve convergence from 6.9083829958865971e-06 to 6.9083829958875974e-06 seconds.
Warning: Simulation tolerance relaxed to achieve convergence from 6.9083829958935995e-06 to 6.9083829958945998e-06 seconds.
Warning: Simulation tolerance relaxed to achieve convergence from 6.9083829959006019e-06 to 6.9083829959016022e-06 seconds.
Warning: Simulation tolerance relaxed to achieve convergence from 6.9083829959056036e-06 to 6.9083829959066040e-06 seconds.
Warning: Simulation tolerance relaxed to achieve convergence from 6.9083829959296119e-06 to 6.9083829959306123e-06 seconds.
Warning: Simulation tolerance relaxed to achieve convergence from 6.9083829959436168e-06 to 6.9083829959446171e-06 seconds.
Warning: Simulation tolerance relaxed to achieve convergence from 6.9083829959606226e-06 to 6.9083829959616230e-06 seconds.
Warning: Simulation tolerance relaxed to achieve convergence from 6.9083829960106399e-06 to 6.9083829960116403e-06 seconds.
Warning: Simulation tolerance relaxed to achieve convergence from 6.9083829960186427e-06 to 6.9083829960196431e-06 seconds.
Warning: Simulation tolerance relaxed to achieve convergence from 6.9083829960236444e-06 to 6.9083829960246448e-06 seconds.
Warning: Simulation tolerance relaxed to achieve convergence from 6.9083829960276458e-06 to 6.9083829960286462e-06 seconds.
Warning: Simulation tolerance relaxed to achieve convergence from 6.9083829960406503e-06 to 6.9083829960416507e-06 seconds.
Warning: Simulation tolerance relaxed to achieve convergence from 6.9083829960466524e-06 to 6.9083829960476527e-06 seconds.
Warning: Simulation tolerance relaxed to achieve convergence from 6.9083829960486531e-06 to 6.9083829960496534e-06 seconds.
Warning: Simulation tolerance relaxed to achieve convergence from 6.9083829960536548e-06 to 6.9083829960546552e-06 seconds.
Warning: Simulation tolerance relaxed to achieve convergence from 6.9083829960566559e-06 to 6.9083829960576562e-06 seconds.
Warning: Simulation tolerance relaxed to achieve convergence from 6.9083829960876666e-06 to 6.9083829960886669e-06 seconds.
Warning: Simulation tolerance relaxed to achieve convergence from 6.9083829961106745e-06 to 6.9083829961116749e-06 seconds.
Warning: Simulation tolerance relaxed to achieve convergence from 6.9083829961296811e-06 to 6.9083829961306815e-06 seconds.
Warning: Simulation tolerance relaxed to achieve convergence from 6.9083829961326821e-06 to 6.9083829961336825e-06 seconds.
Warning: Simulation tolerance relaxed to achieve convergence from 6.9083829961406849e-06 to 6.9083829961416853e-06 seconds.
Warning: Simulation tolerance relaxed to achieve convergence from 6.9083829961786981e-06 to 6.9083829961796984e-06 seconds.
Warning: Simulation tolerance relaxed to achieve convergence from 6.9083829961796984e-06 to 6.9083829961806988e-06 seconds.
Warning: Simulation tolerance relaxed to achieve convergence from 6.9083829961847001e-06 to 6.9083829961857005e-06 seconds.
Warning: Simulation tolerance relaxed to achieve convergence from 6.9083829962097088e-06 to 6.9083829962107091e-06 seconds.
Warning: Simulation tolerance relaxed to achieve convergence from 6.9083829962137102e-06 to 6.9083829962147105e-06 seconds.
Warning: Simulation tolerance relaxed to achieve convergence from 6.9083829962327167e-06 to 6.9083829962337171e-06 seconds.
Warning: Simulation tolerance relaxed to achieve convergence from 6.9083829962357178e-06 to 6.9083829962367181e-06 seconds.
Warning: Simulation tolerance relaxed to achieve convergence from 6.9083829962717302e-06 to 6.9083829962727306e-06 seconds.
Warning: Simulation tolerance relaxed to achieve convergence from 6.9083829962997399e-06 to 6.9083829963007403e-06 seconds.
Warning: Simulation tolerance relaxed to achieve convergence from 6.9083829963137448e-06 to 6.9083829963147451e-06 seconds.
Warning: Simulation tolerance relaxed to achieve convergence from 6.9083829963147451e-06 to 6.9083829963157454e-06 seconds.
Warning: Simulation tolerance relaxed to achieve convergence from 6.9083829963167458e-06 to 6.9083829963177461e-06 seconds.
Warning: Simulation tolerance relaxed to achieve convergence from 6.9083829963257489e-06 to 6.9083829963267493e-06 seconds.
Warning: Simulation tolerance relaxed to achieve convergence from 6.9083829963327513e-06 to 6.9083829963337517e-06 seconds.
Warning: Simulation tolerance relaxed to achieve convergence from 6.9083829963337517e-06 to 6.9083829963347520e-06 seconds.
Warning: Simulation tolerance relaxed to achieve convergence from 6.9083829963347520e-06 to 6.9083829963357524e-06 seconds.
Warning: Simulation tolerance relaxed to achieve convergence from 6.9083829963377531e-06 to 6.9083829963387534e-06 seconds.
Warning: Simulation tolerance relaxed to achieve convergence from 6.9083829963417544e-06 to 6.9083829963427548e-06 seconds.
Warning: Simulation tolerance relaxed to achieve convergence from 6.9083829963537586e-06 to 6.9083829963547589e-06 seconds.
Warning: Simulation tolerance relaxed to achieve convergence from 6.9083829963597607e-06 to 6.9083829963607610e-06 seconds.
Warning: Simulation tolerance relaxed to achieve convergence from 6.9083829963657627e-06 to 6.9083829963667631e-06 seconds.
Warning: Simulation tolerance relaxed to achieve convergence from 6.9083829963677634e-06 to 6.9083829963687638e-06 seconds.
Warning: Simulation tolerance relaxed to achieve convergence from 6.9083829963687638e-06 to 6.9083829963697641e-06 seconds.
Warning: Simulation tolerance relaxed to achieve convergence from 6.9083829963787672e-06 to 6.9083829963797676e-06 seconds.
Warning: Simulation tolerance relaxed to achieve convergence from 6.9083829963837690e-06 to 6.9083829963847693e-06 seconds.
Warning: Simulation tolerance relaxed to achieve convergence from 6.9083829963897710e-06 to 6.9083829963907714e-06 seconds.
Warning: Simulation tolerance relaxed to achieve convergence from 6.9083829964057766e-06 to 6.9083829964067769e-06 seconds.
Warning: Simulation tolerance relaxed to achieve convergence from 6.9083829964167804e-06 to 6.9083829964177807e-06 seconds.
Warning: Simulation tolerance relaxed to achieve convergence from 6.9083829964377876e-06 to 6.9083829964387880e-06 seconds.
Warning: Simulation tolerance relaxed to achieve convergence from 6.9083829964537932e-06 to 6.9083829964547935e-06 seconds.
Warning: Simulation tolerance relaxed to achieve convergence from 6.9083829964617960e-06 to 6.9083829964627963e-06 seconds.
Warning: Simulation tolerance relaxed to achieve convergence from 6.9083829964738001e-06 to 6.9083829964748004e-06 seconds.
Warning: Simulation tolerance relaxed to achieve convergence from 6.9083829964778015e-06 to 6.9083829964788018e-06 seconds.
Warning: Simulation tolerance relaxed to achieve convergence from 6.9083829965018098e-06 to 6.9083829965028101e-06 seconds.
Warning: Simulation tolerance relaxed to achieve convergence from 6.9083829965108129e-06 to 6.9083829965118132e-06 seconds.
Warning: Simulation tolerance relaxed to achieve convergence from 6.9083829965138139e-06 to 6.9083829965148143e-06 seconds.
Warning: Simulation tolerance relaxed to achieve convergence from 6.9083829965308198e-06 to 6.9083829965318202e-06 seconds.
Warning: Simulation tolerance relaxed to achieve convergence from 6.9083829965328205e-06 to 6.9083829965338209e-06 seconds.
Warning: Simulation tolerance relaxed to achieve convergence from 6.9083829965348212e-06 to 6.9083829965358215e-06 seconds.
Warning: Simulation tolerance relaxed to achieve convergence from 6.9083829965528274e-06 to 6.9083829965538278e-06 seconds.
Warning: Simulation tolerance relaxed to achieve convergence from 6.9083829965598299e-06 to 6.9083829965608302e-06 seconds.
Warning: Simulation tolerance relaxed to achieve convergence from 6.9083829965608302e-06 to 6.9083829965618305e-06 seconds.
Warning: Simulation tolerance relaxed to achieve convergence from 6.9083829965708337e-06 to 6.9083829965718340e-06 seconds.
Warning: Simulation tolerance relaxed to achieve convergence from 6.9083829965758354e-06 to 6.9083829965768357e-06 seconds.
Warning: Simulation tolerance relaxed to achieve convergence from 6.9083829966078465e-06 to 6.9083829966088468e-06 seconds.
Warning: Simulation tolerance relaxed to achieve convergence from 6.9083829966148489e-06 to 6.9083829966158492e-06 seconds.
Warning: Simulation tolerance relaxed to achieve convergence from 6.9083829966178499e-06 to 6.9083829966188503e-06 seconds.
Warning: Simulation tolerance relaxed to achieve convergence from 6.9083829966408579e-06 to 6.9083829966418582e-06 seconds.
Warning: Simulation tolerance relaxed to achieve convergence from 6.9083829966628655e-06 to 6.9083829966638658e-06 seconds.
Warning: Simulation tolerance relaxed to achieve convergence from 6.9083829966668669e-06 to 6.9083829966678672e-06 seconds.
Warning: Simulation tolerance relaxed to achieve convergence from 6.9083829967058804e-06 to 6.9083829967068807e-06 seconds.
Warning: Simulation tolerance relaxed to achieve convergence from 6.9083829967098817e-06 to 6.9083829967108821e-06 seconds.
Warning: Simulation tolerance relaxed to achieve convergence from 6.9083829967118824e-06 to 6.9083829967128828e-06 seconds.
Warning: Simulation tolerance relaxed to achieve convergence from 6.9083829967128828e-06 to 6.9083829967138831e-06 seconds.
Warning: Simulation tolerance relaxed to achieve convergence from 6.9083829967248869e-06 to 6.9083829967258873e-06 seconds.
Warning: Simulation tolerance relaxed to achieve convergence from 6.9083829967518963e-06 to 6.9083829967528966e-06 seconds.
Warning: Simulation tolerance relaxed to achieve convergence from 6.9083829967608994e-06 to 6.9083829967618997e-06 seconds.
Warning: Simulation tolerance relaxed to achieve convergence from 6.9083829967629001e-06 to 6.9083829967639004e-06 seconds.
Warning: Simulation tolerance relaxed to achieve convergence from 6.9083829967779053e-06 to 6.9083829967789056e-06 seconds.
Warning: Simulation tolerance relaxed to achieve convergence from 6.9083829967809063e-06 to 6.9083829967819066e-06 seconds.
Warning: Simulation tolerance relaxed to achieve convergence from 6.9083829967989125e-06 to 6.9083829967999129e-06 seconds.
Warning: Simulation tolerance relaxed to achieve convergence from 6.9083829968099163e-06 to 6.9083829968109167e-06 seconds.
Warning: Simulation tolerance relaxed to achieve convergence from 6.9083829968189194e-06 to 6.9083829968199198e-06 seconds.
Warning: Simulation tolerance relaxed to achieve convergence from 6.9083829968359253e-06 to 6.9083829968369257e-06 seconds.
Warning: Simulation tolerance relaxed to achieve convergence from 6.9083829968439281e-06 to 6.9083829968449284e-06 seconds.
Warning: Simulation tolerance relaxed to achieve convergence from 6.9083829968619343e-06 to 6.9083829968629347e-06 seconds.
Warning: Simulation tolerance relaxed to achieve convergence from 6.9083829968659357e-06 to 6.9083829968669360e-06 seconds.
Warning: Simulation tolerance relaxed to achieve convergence from 6.9083829968729381e-06 to 6.9083829968739385e-06 seconds.
Warning: Simulation tolerance relaxed to achieve convergence from 6.9083829968979468e-06 to 6.9083829968989471e-06 seconds.
Warning: Simulation tolerance relaxed to achieve convergence from 6.9083829969089506e-06 to 6.9083829969099509e-06 seconds.
Warning: Simulation tolerance relaxed to achieve convergence from 6.9083829969129520e-06 to 6.9083829969139523e-06 seconds.
Warning: Simulation tolerance relaxed to achieve convergence from 6.9083829969279571e-06 to 6.9083829969289575e-06 seconds.
Warning: Simulation tolerance relaxed to achieve convergence from 6.9083829969319585e-06 to 6.9083829969329589e-06 seconds.
Warning: Simulation tolerance relaxed to achieve convergence from 6.9083829969459634e-06 to 6.9083829969469637e-06 seconds.
Warning: Simulation tolerance relaxed to achieve convergence from 6.9083829969679710e-06 to 6.9083829969689713e-06 seconds.
Warning: Simulation tolerance relaxed to achieve convergence from 6.9083829970209893e-06 to 6.9083829970219897e-06 seconds.
Warning: Simulation tolerance relaxed to achieve convergence from 6.9083829970319931e-06 to 6.9083829970329935e-06 seconds.
Warning: Simulation tolerance relaxed to achieve convergence from 6.9083829970449976e-06 to 6.9083829970459980e-06 seconds.
Warning: Simulation tolerance relaxed to achieve convergence from 6.9083829970509997e-06 to 6.9083829970520000e-06 seconds.
Warning: Simulation tolerance relaxed to achieve convergence from 6.9083829970550011e-06 to 6.9083829970560014e-06 seconds.
Warning: Simulation tolerance relaxed to achieve convergence from 6.9083829970650045e-06 to 6.9083829970660049e-06 seconds.
Warning: Simulation tolerance relaxed to achieve convergence from 6.9083829971010170e-06 to 6.9083829971020173e-06 seconds.
Warning: Simulation tolerance relaxed to achieve convergence from 6.9083829971100201e-06 to 6.9083829971110204e-06 seconds.
Warning: Simulation tolerance relaxed to achieve convergence from 6.9083829971470329e-06 to 6.9083829971480332e-06 seconds.
Warning: Simulation tolerance relaxed to achieve convergence from 6.9083829971550357e-06 to 6.9083829971560360e-06 seconds.
Warning: Simulation tolerance relaxed to achieve convergence from 6.9083829971750426e-06 to 6.9083829971760429e-06 seconds.
Warning: Simulation tolerance relaxed to achieve convergence from 6.9083829971920485e-06 to 6.9083829971930488e-06 seconds.
Warning: Simulation tolerance relaxed to achieve convergence from 6.9083829971930488e-06 to 6.9083829971940492e-06 seconds.
Warning: Simulation tolerance relaxed to achieve convergence from 6.9083829972030523e-06 to 6.9083829972040526e-06 seconds.
Warning: Simulation tolerance relaxed to achieve convergence from 6.9083829972480678e-06 to 6.9083829972490682e-06 seconds.
Warning: Simulation tolerance relaxed to achieve convergence from 6.9083829972590716e-06 to 6.9083829972600720e-06 seconds.
Warning: Simulation tolerance relaxed to achieve convergence from 6.9083829972640734e-06 to 6.9083829972650737e-06 seconds.
Warning: Simulation tolerance relaxed to achieve convergence from 6.9083829972710758e-06 to 6.9083829972720761e-06 seconds.
Warning: Simulation tolerance relaxed to achieve convergence from 6.9083829973010862e-06 to 6.9083829973020865e-06 seconds.
Warning: Simulation tolerance relaxed to achieve convergence from 6.9083829973150910e-06 to 6.9083829973160914e-06 seconds.
Warning: Simulation tolerance relaxed to achieve convergence from 6.9083829973230938e-06 to 6.9083829973240941e-06 seconds.
Warning: Simulation tolerance relaxed to achieve convergence from 6.9083829973310965e-06 to 6.9083829973320969e-06 seconds.
Warning: Simulation tolerance relaxed to achieve convergence from 6.9083829973601066e-06 to 6.9083829973611069e-06 seconds.
Warning: Simulation tolerance relaxed to achieve convergence from 6.9083829973671090e-06 to 6.9083829973681093e-06 seconds.
Warning: Simulation tolerance relaxed to achieve convergence from 6.9083829973741114e-06 to 6.9083829973751118e-06 seconds.
Warning: Simulation tolerance relaxed to achieve convergence from 6.9083829973821142e-06 to 6.9083829973831145e-06 seconds.
Warning: Simulation tolerance relaxed to achieve convergence from 6.9083829973831145e-06 to 6.9083829973841149e-06 seconds.
Warning: Simulation tolerance relaxed to achieve convergence from 6.9083829974211277e-06 to 6.9083829974221280e-06 seconds.
Warning: Simulation tolerance relaxed to achieve convergence from 6.9083829974291304e-06 to 6.9083829974301308e-06 seconds.
Warning: Simulation tolerance relaxed to achieve convergence from 6.9083829974421349e-06 to 6.9083829974431353e-06 seconds.
Warning: Simulation tolerance relaxed to achieve convergence from 6.9083829974641426e-06 to 6.9083829974651429e-06 seconds.
Warning: Simulation tolerance relaxed to achieve convergence from 6.9083829974651429e-06 to 6.9083829974661432e-06 seconds.
Warning: Simulation tolerance relaxed to achieve convergence from 6.9083829974661432e-06 to 6.9083829974671436e-06 seconds.
Warning: Simulation tolerance relaxed to achieve convergence from 6.9083829975161605e-06 to 6.9083829975161605e-06 seconds.

Simulation stopped by user.
Total elapsed time: 12.679 seconds.

Files loaded:
Z:\home\fadelrio\Documents\Ingenieria\Taller de circuitos\TP\quinto_check\oscilador.net
Z:\home\fadelrio\Documents\Ingenieria\Taller de circuitos\TP\quinto_check\LM393A.lib
C:\users\fadelrio\AppData\Local\LTspice\lib\sub\ADI.lib

