LTspice 24.1.10 for Windows
Circuit: Z:\home\fadelrio\Documents\Ingenieria\Taller de circuitos\TP\quinto_check\oscilador.net
Start Time: Fri Nov 14 14:53:07 2025
solver = Normal
Maximum thread count: 16
tnom = 27
temp = 27
method = modified trap
Direct Newton iteration failed to find .op point.  (Use ".option noopiter" to skip.)
Starting Gmin stepping
Gmin = 10
Gmin = 1.07374
Gmin = 0.115292
Gmin = 0.0123794
Gmin = 0.00132923
vernier = 0.5
vernier = 0.25
Gmin = 0.000387166
vernier = 0.125
vernier = 0.0625
vernier = 0.03125
Gmin = 0.000353244
vernier = 0.015625
vernier = 0.0078125
vernier = 0.00390625
vernier = 0.00195312
Gmin = 0.000352727
vernier = 0.000976562
vernier = 0.000488281
Gmin = 0
Gmin stepping failed

Starting source stepping with srcstepmethod=0
Source Step = 3.0303%
Source Step = 33.3333%
Source Step = 51.5152%
vernier = 0.0625
Source Step = 51.8939%
Source Step = 52.3674%
Source Step = 52.8409%
Source Step = 53.3144%
Source Step = 53.7879%
vernier = 0.0234375
Source Step = 54.3324%
Source Step = 55.0426%
Source Step = 55.7528%
Source Step = 56.4631%
Source Step = 57.1733%
vernier = 0.0351562
Source Step = 57.7681%
Source Step = 58.0344%
Source Step = 58.3008%
Source Step = 58.5671%
Source Step = 58.8335%
Source Step = 59.0998%
vernier = 0.0131836
Source Step = 59.4993%
Source Step = 59.8988%
Source Step = 60.2983%
Source Step = 60.6978%
Source Step = 61.0973%
vernier = 0.0197754
Source Step = 61.2571%
Source Step = 61.4069%
Source Step = 61.5567%
Source Step = 61.7065%
Source Step = 61.8564%
vernier = 0.00741577
Source Step = 62.0586%
Source Step = 62.2833%
Source Step = 62.508%
Source Step = 62.7328%
Source Step = 62.9575%
vernier = 0.0111237
Source Step = 63.2496%
Source Step = 63.376%
Source Step = 63.4603%
Source Step = 63.5446%
Source Step = 63.6288%
Source Step = 63.7131%
vernier = 0.00417137
Source Step = 63.8227%
Source Step = 63.9491%
Source Step = 64.0755%
Source Step = 64.2019%
Source Step = 64.3283%
vernier = 0.00625706
Source Step = 64.4863%
Source Step = 64.6759%
Source Step = 64.8655%
Source Step = 65.0551%
Source Step = 65.2447%
Source Step = 65.3443%
Source Step = 65.3917%
Source Step = 65.4391%
Source Step = 65.4865%
Source Step = 65.5339%
vernier = 0.0023464
Source Step = 65.5884%
Source Step = 65.6595%
Source Step = 65.7306%
Source Step = 65.8017%
Source Step = 65.8728%
vernier = 0.00351959
Source Step = 65.951%
Source Step = 66.0577%
Source Step = 66.1643%
Source Step = 66.271%
Source Step = 66.3776%
vernier = 0.00527939
Source Step = 66.4896%
Source Step = 66.6496%
Source Step = 66.8096%
Source Step = 66.9696%
Source Step = 67.1295%
Source Step = 67.2895%
vernier = 0.00791909
Source Step = 67.5295%
Source Step = 67.7695%
Source Step = 68.0094%
Source Step = 68.2494%
Source Step = 68.4894%
vernier = 0.0118786
Source Step = 68.8373%
Source Step = 69.1973%
Source Step = 69.5573%
Source Step = 69.9172%
Source Step = 70.2772%
vernier = 0.0178179
Source Step = 70.7811%
Source Step = 71.3211%
Source Step = 71.861%
Source Step = 72.4009%
Source Step = 72.9409%
vernier = 0.0267269
Source Step = 73.5281%
Source Step = 73.6647%
Source Step = 73.7153%
Source Step = 73.766%
Source Step = 73.8166%
Source Step = 73.8672%
Source Step = 73.9178%
vernier = 0.00250565
Source Step = 73.9786%
Source Step = 74.0545%
Source Step = 74.1304%
Source Step = 74.2063%
Source Step = 74.2823%
vernier = 0.00375847
Source Step = 74.3696%
Source Step = 74.4835%
Source Step = 74.5974%
Source Step = 74.7113%
Source Step = 74.8252%
vernier = 0.00563771
Source Step = 74.9504%
Source Step = 75.1213%
Source Step = 75.2921%
Source Step = 75.463%
Source Step = 75.6338%
vernier = 0.00845657
Source Step = 75.8132%
Source Step = 76.0694%
Source Step = 76.3257%
Source Step = 76.582%
Source Step = 76.8382%
Source Step = 77.0945%
vernier = 0.0126848
Source Step = 77.4789%
Source Step = 77.8633%
Source Step = 78.2477%
Source Step = 78.632%
Source Step = 79.0164%
vernier = 0.0190273
Source Step = 79.5738%
Source Step = 80.1504%
Source Step = 80.727%
Source Step = 81.3036%
Source Step = 81.8801%
vernier = 0.0285409
Source Step = 82.6874%
Source Step = 83.5522%
Source Step = 84.4171%
Source Step = 85.282%
Source Step = 86.1469%
vernier = 0.0428114
Source Step = 87.3144%
Source Step = 88.6118%
Source Step = 89.9091%
Source Step = 90.2415%
Source Step = 90.3226%
Source Step = 90.4037%
Source Step = 90.4848%
Source Step = 90.5658%
Source Step = 90.6469%
Source Step = 90.728%
Source Step = 90.8091%
Source Step = 90.8902%
Source Step = 90.9712%
Source Step = 91.0523%
Source Step = 91.1334%
Source Step = 91.2145%
Source Step = 91.2956%
Source Step = 91.3767%
Source Step = 91.4577%
Source Step = 91.5388%
Source Step = 91.6199%
Source Step = 91.701%
Source Step = 91.7821%
Source Step = 91.8631%
Source Step = 91.9442%
Source Step = 92.0253%
Source Step = 92.1064%
Source Step = 92.1875%
Source Step = 92.2686%
Source Step = 92.3496%
Source Step = 92.4307%
Source Step = 92.5118%
Source Step = 92.5929%
Source Step = 92.674%
Source Step = 92.755%
Source Step = 92.8361%
Source Step = 92.9172%
Source Step = 92.9983%
Source Step = 93.0794%
Source Step = 93.1605%
Source Step = 93.2415%
Source Step = 93.3226%
Source Step = 93.4037%
Source Step = 93.4848%
Source Step = 93.5659%
Source Step = 93.647%
Source Step = 93.728%
Source Step = 93.8091%
Source Step = 93.8902%
Source Step = 93.9713%
Source Step = 94.0524%
Source Step = 94.1334%
Source Step = 94.2145%
Source Step = 94.2956%
Source Step = 94.3767%
Source Step = 94.4578%
Source Step = 94.5389%
Source Step = 94.6199%
Source Step = 94.701%
Source Step = 94.7821%
Source Step = 94.8632%
Source Step = 94.9443%
Source Step = 95.0253%
Source Step = 95.1064%
Source Step = 95.1875%
Source Step = 95.2686%
Source Step = 95.3497%
Source Step = 95.4308%
Source Step = 95.5118%
Source Step = 95.5929%
Source Step = 95.674%
Source Step = 95.7551%
Source Step = 95.8362%
Source Step = 95.9173%
Source Step = 95.9983%
Source Step = 96.0794%
Source Step = 96.1605%
Source Step = 96.2416%
Source Step = 96.3227%
Source Step = 96.4037%
Source Step = 96.4848%
Source Step = 96.5659%
Source Step = 96.647%
Source Step = 96.7281%
Source Step = 96.8092%
Source Step = 96.8902%
Source Step = 96.9713%
Source Step = 97.0524%
Source Step = 97.1335%
Source Step = 97.2146%
Source Step = 97.2956%
Source Step = 97.3767%
Source Step = 97.4578%
Source Step = 97.5389%
Source Step = 97.62%
Source Step = 97.7011%
Source Step = 97.7821%
Source Step = 97.8632%
Source Step = 97.9443%
Source Step = 98.0254%
Source Step = 98.1065%
Source Step = 98.1876%
Source Step = 98.2686%
Source Step = 98.3497%
Source Step = 98.4308%
Source Step = 98.5119%
Source Step = 98.593%
Source Step = 98.674%
Source Step = 98.7551%
Source Step = 98.8362%
Source Step = 98.9173%
Source Step = 98.9984%
Source Step = 99.0795%
Source Step = 99.1605%
Source Step = 99.2416%
Source Step = 99.3227%
Source Step = 99.4038%
Source Step = 99.4849%
Source Step = 99.5659%
Source Step = 99.647%
Source Step = 99.7281%
Source Step = 99.8092%
Source Step = 99.8903%
Source Step = 99.9714%
Source Step = 100%
Source Step = 100%
Source Step = 100%
Source Step = 100%
Source stepping succeeded in finding the operating point.

Total elapsed time: 5.651 seconds.

Files loaded:
Z:\home\fadelrio\Documents\Ingenieria\Taller de circuitos\TP\quinto_check\oscilador.net
Z:\home\fadelrio\Documents\Ingenieria\Taller de circuitos\TP\quinto_check\LM393A.lib
Z:\home\fadelrio\Documents\Ingenieria\Taller de circuitos\TP\cuarto_check\TL082.lib
C:\users\fadelrio\AppData\Local\LTspice\lib\sub\ADI.lib

