LTspice 24.1.9 for Windows
Circuit: C:\users\fadelrio\Documents\Ingenieria\Taller de circuitos\TP\segundo_check\segundo_check_3.net
Start Time: Fri Sep 26 15:11:55 2025
solver = Normal
Maximum thread count: 16
tnom = 27
temp = 27
method = modified trap
Direct Newton iteration failed to find .op point.  (Use ".option noopiter" to skip.)
Starting Gmin stepping
Gmin = 10
Gmin = 1.07374
Gmin = 0.115292
Gmin = 0.0123794
Gmin = 0.00132923
Gmin = 0.000142725
vernier = 0.5
Gmin = 3.64963e-05
vernier = 0.666667
vernier = 0.888888
Gmin = 7.04637e-06
vernier = 1
Gmin = 8.09366e-07
Gmin = 8.6905e-08
Gmin = 9.33136e-09
Gmin = 1.00195e-09
Gmin = 1.07583e-10
Gmin = 1.15517e-11
Gmin = 1.24035e-12
Gmin = 1.33182e-13
Gmin = 0
Gmin stepping succeeded in finding the operating point.

Total elapsed time: 35.692 seconds.

Files loaded:
C:\users\fadelrio\Documents\Ingenieria\Taller de circuitos\TP\segundo_check\segundo_check_3.net
C:\users\fadelrio\AppData\Local\LTspice\lib\cmp\standard.bjt
C:\users\fadelrio\Documents\Ingenieria\Taller de circuitos\TP\segundo_check\mje2955.lib

