LTspice 24.1.10 for Windows
Circuit: C:\users\fadelrio\Documents\Ingenieria\Taller de circuitos\TP\carga_electronica\MK1.net
Start Time: Sat Oct 11 13:12:17 2025
solver = Normal
Maximum thread count: 16
tnom = 27
temp = 27
method = modified trap
Direct Newton iteration failed to find .op point.  (Use ".option noopiter" to skip.)
Starting Gmin stepping
Gmin = 10
Gmin = 1.07374
vernier = 0.5
vernier = 0.25
vernier = 0.125
vernier = 0.0625
Gmin = 1.08884
vernier = 0.03125
vernier = 0.015625
Gmin = 1.03122
vernier = 0.0078125
vernier = 0.00390625
Gmin = 1.01823
vernier = 0.00520833
vernier = 0.00260417
Gmin = 1.01162
vernier = 0.00347222
vernier = 0.00173611
vernier = 0.000868055
Gmin = 1.00899
vernier = 0.00115741
vernier = 0.000578703
Gmin = 1.0071
vernier = 0.000771604
vernier = 0.000578703
Gmin = 1.00579
vernier = 0.000771604
vernier = 0.000578703
vernier = 0.000434027
Gmin = 1.00499
vernier = 0.000578703
vernier = 0.000434027
Gmin = 0
Gmin stepping failed

Starting source stepping with srcstepmethod=0
Source Step = 3.0303%
Source Step = 33.3333%
Source Step = 63.6364%
Source Step = 93.9394%
vernier = 0.25
Source Step = 93.75%
Source Step = 95.6439%
Source Step = 96.9815%
vernier = 0.000976562
Source Step = 96.9993%
Source Step = 97.0289%
Source Step = 97.0585%
Source Step = 97.0881%
Source Step = 97.1177%
vernier = 0.00146484
Source Step = 97.1591%
Source Step = 97.2035%
Source Step = 97.2479%
Source Step = 97.2923%
Source Step = 97.3366%
vernier = 0.00219727
Source Step = 97.3966%
Source Step = 97.4632%
Source Step = 97.5297%
Source Step = 97.5963%
Source Step = 97.6629%
vernier = 0.0032959
Source Step = 97.7495%
Source Step = 97.8493%
Source Step = 97.9492%
Source Step = 98.0491%
Source Step = 98.149%
vernier = 0.00494385
Source Step = 98.2738%
Source Step = 98.4236%
Source Step = 98.5734%
Source Step = 98.7233%
Source Step = 98.8731%
vernier = 0.00741577
Source Step = 99.0528%
Source Step = 99.2776%
Source Step = 99.5023%
Source Step = 99.727%
Source Step = 99.9517%
Source stepping succeeded in finding the operating point.

Total elapsed time: 1.141 seconds.

Files loaded:
C:\users\fadelrio\Documents\Ingenieria\Taller de circuitos\TP\carga_electronica\MK1.net
C:\users\fadelrio\AppData\Local\LTspice\lib\cmp\standard.bjt
C:\users\fadelrio\Documents\Ingenieria\Taller de circuitos\TP\carga_electronica\lm741.lib
C:\users\fadelrio\Documents\Ingenieria\Taller de circuitos\TP\carga_electronica\mje2955.lib

