LTspice 24.1.9 for Windows
Circuit: C:\users\fadelrio\Documents\Ingenieria\Taller de circuitos\TP\carga_electronica\MK1.net
Start Time: Thu Oct  9 12:57:08 2025
solver = Normal
Maximum thread count: 16
tnom = 27
temp = 27
method = modified trap
Direct Newton iteration failed to find .op point.  (Use ".option noopiter" to skip.)
Starting Gmin stepping
Gmin = 10
Gmin = 1.07374
vernier = 0.5
vernier = 0.25
vernier = 0.125
vernier = 0.0625
Gmin = 1.08884
vernier = 0.03125
vernier = 0.015625
Gmin = 1.03122
vernier = 0.0078125
vernier = 0.00390625
Gmin = 1.01823
vernier = 0.00520833
vernier = 0.00260417
Gmin = 1.01162
vernier = 0.00347222
vernier = 0.00173611
vernier = 0.000868055
Gmin = 1.00899
vernier = 0.00115741
vernier = 0.000578703
Gmin = 1.0071
vernier = 0.000771604
vernier = 0.000578703
Gmin = 1.00579
vernier = 0.000771604
vernier = 0.000578703
vernier = 0.000434027
Gmin = 1.00499
vernier = 0.000578703
vernier = 0.000434027
Gmin = 0
Gmin stepping failed

Starting source stepping with srcstepmethod=0
Source Step = 3.0303%
Source Step = 33.3333%
Source Step = 63.6364%
Source Step = 93.9394%
vernier = 0.25
Source Step = 93.75%
Source Step = 95.6439%
Source Step = 97.0644%
Source Step = 97.1325%
Source Step = 97.1621%
Source Step = 97.1916%
Source Step = 97.2212%
Source Step = 97.2508%
vernier = 0.00146484
Source Step = 97.2893%
Source Step = 97.3337%
Source Step = 97.3781%
Source Step = 97.4225%
Source Step = 97.4669%
vernier = 0.00219727
Source Step = 97.5223%
Source Step = 97.5889%
Source Step = 97.6555%
Source Step = 97.7221%
Source Step = 97.7887%
vernier = 0.0032959
Source Step = 97.8686%
Source Step = 97.9685%
Source Step = 98.0683%
Source Step = 98.1682%
Source Step = 98.2681%
vernier = 0.00494385
Source Step = 98.3829%
Source Step = 98.5328%
Source Step = 98.6826%
Source Step = 98.8324%
Source Step = 98.9822%
vernier = 0.00741577
Source Step = 99.147%
Source Step = 99.3717%
Source Step = 99.5964%
Source Step = 99.8211%
Source stepping succeeded in finding the operating point.

Total elapsed time: 1.039 seconds.

Files loaded:
C:\users\fadelrio\Documents\Ingenieria\Taller de circuitos\TP\carga_electronica\MK1.net
C:\users\fadelrio\AppData\Local\LTspice\lib\cmp\standard.bjt
C:\users\fadelrio\Documents\Ingenieria\Taller de circuitos\TP\carga_electronica\lm741.lib
C:\users\fadelrio\Documents\Ingenieria\Taller de circuitos\TP\carga_electronica\mje2955.lib

