C:\users\fadelrio\Documents\Ingenieria\Taller de circuitos\tp\primer_check\Draft2.net(25): Corrected wrong sign of increment.
.step param R_L 10 .001 .002
                       ^^^^^
LTspice 24.1.9 for Windows
Circuit: C:\users\fadelrio\Documents\Ingenieria\Taller de circuitos\tp\primer_check\Draft2.net
Start Time: Thu Sep  4 15:18:20 2025
solver = Normal
Maximum thread count: 16
tnom = 27
temp = 27
method = modified trap
Direct Newton iteration failed to find .op point.  (Use ".option noopiter" to skip.)
Starting Gmin stepping
Gmin = 10
Gmin = 1.07374
Gmin = 0.115292
Gmin = 0.0123794
Gmin = 0.00132923
Gmin = 0.000142725
vernier = 0.5
vernier = 0.666667
Gmin = 4.65514e-05
vernier = 0.888888
Gmin = 7.53781e-06
vernier = 1
Gmin = 8.09366e-07
Gmin = 8.6905e-08
Gmin = 9.33136e-09
Gmin = 1.00195e-09
Gmin = 1.07583e-10
Gmin = 1.15517e-11
Gmin = 1.24035e-12
Gmin = 1.33182e-13
Gmin = 0
Gmin stepping succeeded in finding the operating point.

Total elapsed time: 356.527 seconds.

Files loaded:
C:\users\fadelrio\Documents\Ingenieria\Taller de circuitos\tp\primer_check\Draft2.net
C:\users\fadelrio\AppData\Local\LTspice\lib\cmp\standard.bjt
C:\users\fadelrio\Documents\Ingenieria\Taller de circuitos\tp\primer_check\mje2955.lib

C:\users\fadelrio\Documents\Ingenieria\Taller de circuitos\tp\primer_check\Draft2.net(34): Current not found.
.meas OP Io1rc FIND I(RL) AT 100
                    ^^^^^
