LTspice 24.1.9 for Windows
Circuit: C:\users\fadelrio\Documents\Ingenieria\Taller de circuitos\tp\primer_check\primer_check_6.net
Start Time: Fri Sep  5 20:33:46 2025
solver = Normal
Maximum thread count: 16
tnom = 27
temp = 27
method = modified trap
Direct Newton iteration failed to find .op point.  (Use ".option noopiter" to skip.)
Starting Gmin stepping
Gmin = 10
Gmin = 1.07374
Gmin = 0.115292
Gmin = 0.0123794
Gmin = 0.00132923
Gmin = 0.000142725
Gmin = 1.5325e-05
Gmin = 1.6455e-06
Gmin = 1.76685e-07
Gmin = 1.89714e-08
Gmin = 2.03704e-09
Gmin = 2.18725e-10
Gmin = 2.34854e-11
Gmin = 2.52173e-12
Gmin = 2.70769e-13
Gmin = 0
Gmin stepping succeeded in finding the operating point.

Total elapsed time: 14.711 seconds.

Files loaded:
C:\users\fadelrio\Documents\Ingenieria\Taller de circuitos\tp\primer_check\primer_check_6.net
C:\users\fadelrio\AppData\Local\LTspice\lib\cmp\standard.bjt
C:\users\fadelrio\Documents\Ingenieria\Taller de circuitos\tp\primer_check\mje2955.lib

Measurement "vo1rc" FAIL'ed
vo2rc: V(Vo)=5.0025677681 at 5
Measurement "io1rc" FAIL'ed
io2rc: I(RL)=1.00051355362 at 5
