C:\users\fadelrio\Documents\Ingenieria\Taller de circuitos\tp\primer_check\primer_check_2.net(21): Corrected wrong sign of increment.
.step param R_L 200 1 1
                     ^^
LTspice 24.1.9 for Windows
Circuit: C:\users\fadelrio\Documents\Ingenieria\Taller de circuitos\tp\primer_check\primer_check_2.net
Start Time: Wed Sep  3 20:18:50 2025
solver = Normal
Maximum thread count: 16
tnom = 27
temp = 27
method = modified trap
.step r_l=1
.step r_l=2
.step r_l=3
.step r_l=4
.step r_l=5
.step r_l=6
.step r_l=7
.step r_l=8
.step r_l=9
.step r_l=10
.step r_l=11
.step r_l=12
.step r_l=13
.step r_l=14
.step r_l=15
.step r_l=16
.step r_l=17
.step r_l=18
.step r_l=19
.step r_l=20
.step r_l=21
.step r_l=22
.step r_l=23
.step r_l=24
.step r_l=25
.step r_l=26
.step r_l=27
.step r_l=28
.step r_l=29
.step r_l=30
.step r_l=31
.step r_l=32
.step r_l=33
.step r_l=34
.step r_l=35
.step r_l=36
.step r_l=37
.step r_l=38
.step r_l=39
.step r_l=40
.step r_l=41
.step r_l=42
.step r_l=43
.step r_l=44
.step r_l=45
.step r_l=46
.step r_l=47
.step r_l=48
.step r_l=49
.step r_l=50
.step r_l=51
.step r_l=52
.step r_l=53
.step r_l=54
.step r_l=55
.step r_l=56
.step r_l=57
.step r_l=58
.step r_l=59
.step r_l=60
.step r_l=61
.step r_l=62
.step r_l=63
.step r_l=64
.step r_l=65
.step r_l=66
.step r_l=67
.step r_l=68
.step r_l=69
.step r_l=70
.step r_l=71
.step r_l=72
.step r_l=73
.step r_l=74
.step r_l=75
.step r_l=76
.step r_l=77
.step r_l=78
.step r_l=79
.step r_l=80
.step r_l=81
.step r_l=82
.step r_l=83
.step r_l=84
.step r_l=85
.step r_l=86
.step r_l=87
.step r_l=88
.step r_l=89
.step r_l=90
.step r_l=91
.step r_l=92
.step r_l=93
.step r_l=94
.step r_l=95
.step r_l=96
.step r_l=97
.step r_l=98
.step r_l=99
.step r_l=100
.step r_l=101
.step r_l=102
.step r_l=103
.step r_l=104
.step r_l=105
.step r_l=106
.step r_l=107
.step r_l=108
.step r_l=109
.step r_l=110
.step r_l=111
.step r_l=112
.step r_l=113
.step r_l=114
.step r_l=115
.step r_l=116
.step r_l=117
.step r_l=118
.step r_l=119
.step r_l=120
.step r_l=121
.step r_l=122
.step r_l=123
.step r_l=124
.step r_l=125
.step r_l=126
.step r_l=127
.step r_l=128
.step r_l=129
.step r_l=130
.step r_l=131
.step r_l=132
.step r_l=133
.step r_l=134
.step r_l=135
.step r_l=136
.step r_l=137
.step r_l=138
.step r_l=139
.step r_l=140
.step r_l=141
.step r_l=142
.step r_l=143
.step r_l=144
.step r_l=145
.step r_l=146
.step r_l=147
.step r_l=148
.step r_l=149
.step r_l=150
.step r_l=151
.step r_l=152
.step r_l=153
.step r_l=154
.step r_l=155
.step r_l=156
.step r_l=157
.step r_l=158
.step r_l=159
.step r_l=160
.step r_l=161
.step r_l=162
.step r_l=163
.step r_l=164
.step r_l=165
.step r_l=166
.step r_l=167
.step r_l=168
.step r_l=169
.step r_l=170
.step r_l=171
.step r_l=172
.step r_l=173
.step r_l=174
.step r_l=175
.step r_l=176
.step r_l=177
.step r_l=178
.step r_l=179
.step r_l=180
.step r_l=181
.step r_l=182
.step r_l=183
.step r_l=184
.step r_l=185
.step r_l=186
.step r_l=187
.step r_l=188
.step r_l=189
.step r_l=190
.step r_l=191
.step r_l=192
.step r_l=193
.step r_l=194
.step r_l=195
.step r_l=196
.step r_l=197
.step r_l=198
.step r_l=199
.step r_l=200
Total elapsed time: 6.930 seconds.

Files loaded:
C:\users\fadelrio\Documents\Ingenieria\Taller de circuitos\tp\primer_check\primer_check_2.net
C:\users\fadelrio\AppData\Local\LTspice\lib\cmp\standard.bjt
C:\users\fadelrio\Documents\Ingenieria\Taller de circuitos\tp\primer_check\mje2955.lib


Measurement: vo1rl
  step	V(Vo)	at
     1	4.98492956161	12
     2	5.01483869553	12
     3	5.01933574677	12
     4	5.02093935013	12
     5	5.02173042297	12
     6	5.02219343185	12
     7	5.02249526978	12
     8	5.02270698547	12
     9	5.02286338806	12
    10	5.02298402786	12
    11	5.02307939529	12
    12	5.02315664291	12
    13	5.02322101593	12
    14	5.02327537537	12
    15	5.02332210541	12
    16	5.02336263657	12
    17	5.02339792252	12
    18	5.02342939377	12
    19	5.02345705032	12
    20	5.02348232269	12
    21	5.02350473404	12
    22	5.02352523804	12
    23	5.02354431152	12
    24	5.02356147766	12
    25	5.02357769012	12
    26	5.02359199524	12
    27	5.02360582352	12
    28	5.02361869812	12
    29	5.02363061905	12
    30	5.0236415863	12
    31	5.02365207672	12
    32	5.0236620903	12
    33	5.02367162704	12
    34	5.02368021011	12
    35	5.02368879318	12
    36	5.02369642258	12
    37	5.02370405197	12
    38	5.02371120453	12
    39	5.02371835709	12
    40	5.02372455597	12
    41	5.02373075485	12
    42	5.02373695374	12
    43	5.02374267578	12
    44	5.02374839783	12
    45	5.02375364304	12
    46	5.02375888824	12
    47	5.02376365662	12
    48	5.02376842499	12
    49	5.02377319336	12
    50	5.02377748489	12
    51	5.02378177643	12
    52	5.02378606796	12
    53	5.02378988266	12
    54	5.02379369736	12
    55	5.02379751205	12
    56	5.02380132675	12
    57	5.02380466461	12
    58	5.02380800247	12
    59	5.02381134033	12
    60	5.02381467819	12
    61	5.02381801605	12
    62	5.02382087708	12
    63	5.02382421494	12
    64	5.02382707596	12
    65	5.02382993698	12
    66	5.02383232117	12
    67	5.02383518219	12
    68	5.02383804321	12
    69	5.0238404274	12
    70	5.02384281158	12
    71	5.02384567261	12
    72	5.02384805679	12
    73	5.02385044098	12
    74	5.02385234833	12
    75	5.02385473251	12
    76	5.0238571167	12
    77	5.02385902405	12
    78	5.02386140823	12
    79	5.02386331558	12
    80	5.02386522293	12
    81	5.02386760712	12
    82	5.02386951447	12
    83	5.02387142181	12
    84	5.02387332916	12
    85	5.02387523651	12
    86	5.02387666702	12
    87	5.02387857437	12
    88	5.02388048172	12
    89	5.02388238907	12
    90	5.02388381958	12
    91	5.02388572693	12
    92	5.02388715744	12
    93	5.02388858795	12
    94	5.0238904953	12
    95	5.02389192581	12
    96	5.02389335632	12
    97	5.02389478683	12
    98	5.02389621735	12
    99	5.02389812469	12
   100	5.02389955521	12
   101	5.02390098572	12
   102	5.02390241623	12
   103	5.0239033699	12
   104	5.02390480042	12
   105	5.02390623093	12
   106	5.02390766144	12
   107	5.02390909195	12
   108	5.02391004562	12
   109	5.02391147614	12
   110	5.02391290665	12
   111	5.02391386032	12
   112	5.02391529083	12
   113	5.02391624451	12
   114	5.02391767502	12
   115	5.02391862869	12
   116	5.02391958237	12
   117	5.02392101288	12
   118	5.02392196655	12
   119	5.02392339706	12
   120	5.02392435074	12
   121	5.02392530441	12
   122	5.02392625809	12
   123	5.0239276886	12
   124	5.02392864227	12
   125	5.02392959595	12
   126	5.02393054962	12
   127	5.0239315033	12
   128	5.02393245697	12
   129	5.02393341064	12
   130	5.02393436432	12
   131	5.02393531799	12
   132	5.02393627167	12
   133	5.02393722534	12
   134	5.02393817902	12
   135	5.02393913269	12
   136	5.02394008636	12
   137	5.02394104004	12
   138	5.02394199371	12
   139	5.02394294739	12
   140	5.02394390106	12
   141	5.0239443779	12
   142	5.02394533157	12
   143	5.02394628525	12
   144	5.02394723892	12
   145	5.02394771576	12
   146	5.02394866943	12
   147	5.02394962311	12
   148	5.02395057678	12
   149	5.02395105362	12
   150	5.02395200729	12
   151	5.02395296097	12
   152	5.02395343781	12
   153	5.02395439148	12
   154	5.02395486832	12
   155	5.02395582199	12
   156	5.02395677567	12
   157	5.0239572525	12
   158	5.02395820618	12
   159	5.02395868301	12
   160	5.02395963669	12
   161	5.02396011353	12
   162	5.0239610672	12
   163	5.02396154404	12
   164	5.02396249771	12
   165	5.02396297455	12
   166	5.02396345139	12
   167	5.02396440506	12
   168	5.0239648819	12
   169	5.02396583557	12
   170	5.02396631241	12
   171	5.02396678925	12
   172	5.02396774292	12
   173	5.02396821976	12
   174	5.02396869659	12
   175	5.02396965027	12
   176	5.02397012711	12
   177	5.02397060394	12
   178	5.02397155762	12
   179	5.02397203445	12
   180	5.02397251129	12
   181	5.02397346497	12
   182	5.0239739418	12
   183	5.02397441864	12
   184	5.02397489548	12
   185	5.02397584915	12
   186	5.02397632599	12
   187	5.02397680283	12
   188	5.02397727966	12
   189	5.0239777565	12
   190	5.02397871017	12
   191	5.02397918701	12
   192	5.02397966385	12
   193	5.02398014069	12
   194	5.02398061752	12
   195	5.02398109436	12
   196	5.0239815712	12
   197	5.02398252487	12
   198	5.02398300171	12
   199	5.02398347855	12
   200	5.02398395538	12

Measurement: vo2rl
  step	V(Vo)	at
     1	5.04724645615	24
     2	5.05496072769	24
     3	5.05642700195	24
     4	5.05700302124	24
     5	5.05730485916	24
     6	5.05748939514	24
     7	5.05761384964	24
     8	5.05770397186	24
     9	5.05777215958	24
    10	5.05782556534	24
    11	5.05786848068	24
    12	5.05790424347	24
    13	5.05793476105	24
    14	5.05796051025	24
    15	5.0579829216	24
    16	5.05800247192	24
    17	5.05801963806	24
    18	5.05803537369	24
    19	5.0580496788	24
    20	5.05806207657	24
    21	5.05807352066	24
    22	5.05808448792	24
    23	5.05809402466	24
    24	5.05810308456	24
    25	5.05811166763	24
    26	5.05811929703	24
    27	5.05812644958	24
    28	5.05813360214	24
    29	5.05813980103	24
    30	5.05814599991	24
    31	5.05815172195	24
    32	5.05815696716	24
    33	5.05816221237	24
    34	5.05816698074	24
    35	5.05817174911	24
    36	5.05817651749	24
    37	5.05818033218	24
    38	5.05818462372	24
    39	5.05818843842	24
    40	5.05819225311	24
    41	5.05819559097	24
    42	5.05819940567	24
    43	5.05820226669	24
    44	5.05820560455	24
    45	5.05820894241	24
    46	5.05821180344	24
    47	5.05821466446	24
    48	5.05821752548	24
    49	5.05821990967	24
    50	5.05822277069	24
    51	5.05822515488	24
    52	5.05822753906	24
    53	5.05822992325	24
    54	5.05823230743	24
    55	5.05823469162	24
    56	5.05823659897	24
    57	5.05823898315	24
    58	5.0582408905	24
    59	5.05824279785	24
    60	5.0582447052	24
    61	5.05824661255	24
    62	5.0582485199	24
    63	5.05825042725	24
    64	5.05825233459	24
    65	5.05825376511	24
    66	5.05825567245	24
    67	5.05825710297	24
    68	5.05825901031	24
    69	5.05826044083	24
    70	5.05826187134	24
    71	5.05826330185	24
    72	5.0582652092	24
    73	5.05826663971	24
    74	5.05826807022	24
    75	5.05826950073	24
    76	5.05827045441	24
    77	5.05827188492	24
    78	5.05827331543	24
    79	5.05827474594	24
    80	5.05827569962	24
    81	5.05827713013	24
    82	5.05827856064	24
    83	5.05827951431	24
    84	5.05828094482	24
    85	5.0582818985	24
    86	5.05828285217	24
    87	5.05828428268	24
    88	5.05828523636	24
    89	5.05828619003	24
    90	5.05828762054	24
    91	5.05828857422	24
    92	5.05828952789	24
    93	5.05829048157	24
    94	5.05829143524	24
    95	5.05829238892	24
    96	5.05829334259	24
    97	5.05829429626	24
    98	5.05829524994	24
    99	5.05829620361	24
   100	5.05829715729	24
   101	5.05829811096	24
   102	5.05829906464	24
   103	5.05830001831	24
   104	5.05830097198	24
   105	5.05830144882	24
   106	5.0583024025	24
   107	5.05830335617	24
   108	5.05830430984	24
   109	5.05830478668	24
   110	5.05830574036	24
   111	5.05830669403	24
   112	5.05830717087	24
   113	5.05830812454	24
   114	5.05830907822	24
   115	5.05830955505	24
   116	5.05831050873	24
   117	5.05831098557	24
   118	5.05831193924	24
   119	5.05831241608	24
   120	5.05831336975	24
   121	5.05831384659	24
   122	5.05831480026	24
   123	5.0583152771	24
   124	5.05831623077	24
   125	5.05831670761	24
   126	5.05831766129	24
   127	5.05831813812	24
   128	5.05831861496	24
   129	5.05831956863	24
   130	5.05832004547	24
   131	5.05832052231	24
   132	5.05832147598	24
   133	5.05832195282	24
   134	5.05832242966	24
   135	5.05832290649	24
   136	5.05832386017	24
   137	5.05832433701	24
   138	5.05832481384	24
   139	5.05832529068	24
   140	5.05832624435	24
   141	5.05832672119	24
   142	5.05832719803	24
   143	5.05832767487	24
   144	5.0583281517	24
   145	5.05832910538	24
   146	5.05832958221	24
   147	5.05833005905	24
   148	5.05833053589	24
   149	5.05833101273	24
   150	5.05833148956	24
   151	5.0583319664	24
   152	5.05833244324	24
   153	5.05833292007	24
   154	5.05833339691	24
   155	5.05833435059	24
   156	5.05833482742	24
   157	5.05833530426	24
   158	5.0583357811	24
   159	5.05833625793	24
   160	5.05833673477	24
   161	5.05833721161	24
   162	5.05833768845	24
   163	5.05833816528	24
   164	5.05833864212	24
   165	5.05833911896	24
   166	5.05833959579	24
   167	5.05833959579	24
   168	5.05834007263	24
   169	5.05834054947	24
   170	5.05834102631	24
   171	5.05834150314	24
   172	5.05834197998	24
   173	5.05834245682	24
   174	5.05834293365	24
   175	5.05834341049	24
   176	5.05834388733	24
   177	5.05834436417	24
   178	5.05834436417	24
   179	5.058344841	24
   180	5.05834531784	24
   181	5.05834579468	24
   182	5.05834627151	24
   183	5.05834674835	24
   184	5.05834722519	24
   185	5.05834722519	24
   186	5.05834770203	24
   187	5.05834817886	24
   188	5.0583486557	24
   189	5.05834913254	24
   190	5.05834960938	24
   191	5.05834960938	24
   192	5.05835008621	24
   193	5.05835056305	24
   194	5.05835103989	24
   195	5.05835103989	24
   196	5.05835151672	24
   197	5.05835199356	24
   198	5.0583524704	24
   199	5.05835294724	24
   200	5.05835294724	24

Measurement: reglin
  step	((Vo2rl-Vo1rl)/12)
     1	0.00519307454427
     2	0.00334350268046
     3	0.00309093793233
     4	0.00300530592601
     5	0.00296453634898
     6	0.00294133027395
     7	0.00292654832204
     8	0.00291641553243
     9	0.00290906429291
    10	0.0029034614563
    11	0.00289909044902
    12	0.00289563337962
    13	0.0028928120931
    14	0.00289042790731
    15	0.00288840134939
    16	0.00288665294647
    17	0.00288514296214
    18	0.00288383165995
    19	0.00288271903992
    20	0.00288164615631
    21	0.00288073221842
    22	0.00287993748983
    23	0.00287914276123
    24	0.00287846724192
    25	0.00287783145905
    26	0.00287727514903
    27	0.00287671883901
    28	0.00287624200185
    29	0.00287576516469
    30	0.00287536780039
    31	0.0028749704361
    32	0.0028745730718
    33	0.00287421544393
    34	0.00287389755249
    35	0.00287357966105
    36	0.00287334124247
    37	0.00287302335103
    38	0.00287278493245
    39	0.00287250677745
    40	0.0028723080953
    41	0.00287206967672
    42	0.00287187099457
    43	0.00287163257599
    44	0.00287143389384
    45	0.00287127494812
    46	0.00287107626597
    47	0.00287091732025
    48	0.00287075837453
    49	0.00287055969238
    50	0.00287044048309
    51	0.00287028153737
    52	0.00287012259165
    53	0.00287000338236
    54	0.00286988417308
    55	0.00286976496379
    56	0.00286960601807
    57	0.00286952654521
    58	0.00286940733592
    59	0.00286928812663
    60	0.00286916891734
    61	0.00286904970805
    62	0.00286897023519
    63	0.0028688510259
    64	0.00286877155304
    65	0.00286865234375
    66	0.00286861260732
    67	0.00286849339803
    68	0.00286841392517
    69	0.00286833445231
    70	0.00286825497945
    71	0.00286813577016
    72	0.00286809603373
    73	0.00286801656087
    74	0.00286797682444
    75	0.00286789735158
    76	0.00286777814229
    77	0.00286773840586
    78	0.002867658933
    79	0.00286761919657
    80	0.00286753972371
    81	0.00286746025085
    82	0.00286742051442
    83	0.00286734104156
    84	0.00286730130514
    85	0.00286722183228
    86	0.00286718209585
    87	0.00286714235942
    88	0.00286706288656
    89	0.0028669834137
    90	0.0028669834137
    91	0.00286690394084
    92	0.00286686420441
    93	0.00286682446798
    94	0.00286674499512
    95	0.00286670525869
    96	0.00286666552226
    97	0.00286662578583
    98	0.0028665860494
    99	0.00286650657654
   100	0.00286646684011
   101	0.00286642710368
   102	0.00286638736725
   103	0.00286638736725
   104	0.00286634763082
   105	0.00286626815796
   106	0.00286622842153
   107	0.0028661886851
   108	0.0028661886851
   109	0.00286610921224
   110	0.00286606947581
   111	0.00286606947581
   112	0.00286599000295
   113	0.00286599000295
   114	0.00286595026652
   115	0.00286591053009
   116	0.00286591053009
   117	0.00286583105723
   118	0.00286583105723
   119	0.00286575158437
   120	0.00286575158437
   121	0.00286571184794
   122	0.00286571184794
   123	0.00286563237508
   124	0.00286563237508
   125	0.00286559263865
   126	0.00286559263865
   127	0.00286555290222
   128	0.00286551316579
   129	0.00286551316579
   130	0.00286547342936
   131	0.00286543369293
   132	0.00286543369293
   133	0.0028653939565
   134	0.00286535422007
   135	0.00286531448364
   136	0.00286531448364
   137	0.00286527474721
   138	0.00286523501078
   139	0.00286519527435
   140	0.00286519527435
   141	0.00286519527435
   142	0.00286515553792
   143	0.00286511580149
   144	0.00286507606506
   145	0.00286511580149
   146	0.00286507606506
   147	0.00286503632863
   148	0.0028649965922
   149	0.0028649965922
   150	0.00286495685577
   151	0.00286491711934
   152	0.00286491711934
   153	0.00286487738291
   154	0.00286487738291
   155	0.00286487738291
   156	0.00286483764648
   157	0.00286483764648
   158	0.00286479791005
   159	0.00286479791005
   160	0.00286475817362
   161	0.00286475817362
   162	0.00286471843719
   163	0.00286471843719
   164	0.00286467870076
   165	0.00286467870076
   166	0.00286467870076
   167	0.00286459922791
   168	0.00286459922791
   169	0.00286455949148
   170	0.00286455949148
   171	0.00286455949148
   172	0.00286451975505
   173	0.00286451975505
   174	0.00286451975505
   175	0.00286448001862
   176	0.00286448001862
   177	0.00286448001862
   178	0.00286440054576
   179	0.00286440054576
   180	0.00286440054576
   181	0.00286436080933
   182	0.00286436080933
   183	0.00286436080933
   184	0.00286436080933
   185	0.00286428133647
   186	0.00286428133647
   187	0.00286428133647
   188	0.00286428133647
   189	0.00286428133647
   190	0.00286424160004
   191	0.00286420186361
   192	0.00286420186361
   193	0.00286420186361
   194	0.00286420186361
   195	0.00286416212718
   196	0.00286416212718
   197	0.00286412239075
   198	0.00286412239075
   199	0.00286412239075
   200	0.00286408265432
