LTspice 24.1.9 for Windows
Circuit: C:\users\fadelrio\Documents\Ingenieria\Taller de circuitos\TP\primer_check\primer_check_7.net
Start Time: Wed Sep 10 14:37:13 2025
solver = Normal
Maximum thread count: 16
tnom = 27
temp = 27
method = modified trap
Direct Newton iteration for .op point succeeded.
Total elapsed time: 0.038 seconds.

Files loaded:
C:\users\fadelrio\Documents\Ingenieria\Taller de circuitos\TP\primer_check\primer_check_7.net
C:\users\fadelrio\AppData\Local\LTspice\lib\cmp\standard.bjt
C:\users\fadelrio\Documents\Ingenieria\Taller de circuitos\TP\primer_check\mje2955.lib

C:\users\fadelrio\Documents\Ingenieria\Taller de circuitos\TP\primer_check\primer_check_7.net(35): Current not found.
.meas OP Io1rc FIND I(RL) AT 100
                    ^^^^^
