LTspice 24.1.9 for Windows
Circuit: C:\users\fadelrio\Documents\Ingenieria\Taller de circuitos\tp\primer_check\primer_check.net
Start Time: Mon Sep  1 14:11:08 2025
solver = Normal
Maximum thread count: 16
tnom = 27
temp = 27
method = modified trap
.step 
Total elapsed time: 0.038 seconds.

Files loaded:
C:\users\fadelrio\Documents\Ingenieria\Taller de circuitos\tp\primer_check\primer_check.net
C:\users\fadelrio\AppData\Local\LTspice\lib\cmp\standard.bjt
C:\users\fadelrio\Documents\Ingenieria\Taller de circuitos\tp\primer_check\mje3055.lib

