C:\users\fadelrio\Documents\Ingenieria\Taller de circuitos\TP\primer_check\primer_check.net(15): Corrected wrong sign of increment.
.step param R_L 100 .001 .5
                        ^^^
LTspice 24.1.9 for Windows
Circuit: C:\users\fadelrio\Documents\Ingenieria\Taller de circuitos\TP\primer_check\primer_check.net
Start Time: Wed Sep 10 19:46:34 2025
solver = Normal
Maximum thread count: 16
tnom = 27
temp = 27
method = modified trap
Direct Newton iteration for .op point succeeded.
Total elapsed time: 13.160 seconds.

Files loaded:
C:\users\fadelrio\Documents\Ingenieria\Taller de circuitos\TP\primer_check\primer_check.net
C:\users\fadelrio\AppData\Local\LTspice\lib\cmp\standard.bjt
C:\users\fadelrio\Documents\Ingenieria\Taller de circuitos\TP\primer_check\mje3055.lib

vo1rc: V(Vo)=5.00030469894 at 100
vo2rc: V(Vo)=4.67905434285 at 5
io1rc: I(RL)=0.0500030443072 at 100
io2rc: I(RL)=0.935820839724 at 5
